* SPICE netlist generated by Yosys 0.9 (git sha1 1979e0b)

.SUBCKT butterfly x1_r_0_ x1_r_1_ x1_r_2_ x1_r_3_ x1_r_4_ x1_r_5_ x1_r_6_ x1_r_7_ x1_r_8_ x1_r_9_ x1_r_10_ x1_r_11_ x1_r_12_ x1_r_13_ x1_r_14_ x1_r_15_ x1_i_0_ x1_i_1_ x1_i_2_ x1_i_3_ x1_i_4_ x1_i_5_ x1_i_6_ x1_i_7_ x1_i_8_ x1_i_9_ x1_i_10_ x1_i_11_ x1_i_12_ x1_i_13_ x1_i_14_ x1_i_15_ x2_r_0_ x2_r_1_ x2_r_2_ x2_r_3_ x2_r_4_ x2_r_5_ x2_r_6_ x2_r_7_ x2_r_8_ x2_r_9_ x2_r_10_ x2_r_11_ x2_r_12_ x2_r_13_ x2_r_14_ x2_r_15_ x2_i_0_ x2_i_1_ x2_i_2_ x2_i_3_ x2_i_4_ x2_i_5_ x2_i_6_ x2_i_7_ x2_i_8_ x2_i_9_ x2_i_10_ x2_i_11_ x2_i_12_ x2_i_13_ x2_i_14_ x2_i_15_ w_r_0_ w_r_1_ w_r_2_ w_r_3_ w_r_4_ w_r_5_ w_r_6_ w_r_7_ w_r_8_ w_r_9_ w_r_10_ w_r_11_ w_r_12_ w_r_13_ w_r_14_ w_r_15_ w_i_0_ w_i_1_ w_i_2_ w_i_3_ w_i_4_ w_i_5_ w_i_6_ w_i_7_ w_i_8_ w_i_9_ w_i_10_ w_i_11_ w_i_12_ w_i_13_ w_i_14_ w_i_15_ start y1_r_0_ y1_r_1_ y1_r_2_ y1_r_3_ y1_r_4_ y1_r_5_ y1_r_6_ y1_r_7_ y1_r_8_ y1_r_9_ y1_r_10_ y1_r_11_ y1_r_12_ y1_r_13_ y1_r_14_ y1_r_15_ y1_i_0_ y1_i_1_ y1_i_2_ y1_i_3_ y1_i_4_ y1_i_5_ y1_i_6_ y1_i_7_ y1_i_8_ y1_i_9_ y1_i_10_ y1_i_11_ y1_i_12_ y1_i_13_ y1_i_14_ y1_i_15_ y2_r_0_ y2_r_1_ y2_r_2_ y2_r_3_ y2_r_4_ y2_r_5_ y2_r_6_ y2_r_7_ y2_r_8_ y2_r_9_ y2_r_10_ y2_r_11_ y2_r_12_ y2_r_13_ y2_r_14_ y2_r_15_ y2_i_0_ y2_i_1_ y2_i_2_ y2_i_3_ y2_i_4_ y2_i_5_ y2_i_6_ y2_i_7_ y2_i_8_ y2_i_9_ y2_i_10_ y2_i_11_ y2_i_12_ y2_i_13_ y2_i_14_ y2_i_15_
X0 start 1 INV_X1
X1 w_i_7_ 2 INV_X1
X2 w_r_0_ 3 INV_X1
X3 w_r_1_ 4 INV_X1
X4 x2_r_0_ 5 INV_X1
X5 x2_r_1_ 6 INV_X1
X6 x2_r_7_ 7 INV_X1
X7 x1_r_6_ 8 INV_X1
X8 x2_r_15_ 9 INV_X1
X9 x1_r_9_ 10 INV_X1
X10 x1_r_11_ 11 INV_X1
X11 x1_r_12_ 12 INV_X1
X12 w_i_15_ 13 INV_X1
X13 x2_i_3_ 14 INV_X1
X14 x2_i_15_ 15 INV_X1
X15 x1_r_3_ 16 INV_X1
X16 x1_r_4_ 17 INV_X1
X17 x1_r_5_ 18 INV_X1
X18 x1_i_0_ 19 INV_X1
X19 x1_i_1_ 20 INV_X1
X20 x1_i_2_ 21 INV_X1
X21 x1_i_3_ 22 INV_X1
X22 x1_i_4_ 23 INV_X1
X23 x1_i_5_ 24 INV_X1
X24 x1_i_6_ 25 INV_X1
X25 x1_i_7_ 26 INV_X1
X26 x1_i_8_ 27 INV_X1
X27 x1_i_9_ 28 INV_X1
X28 x1_i_11_ 29 INV_X1
X29 x1_i_13_ 30 INV_X1
X30 w_r_0_ w_r_2_ x2_i_0_ x2_i_2_ 31 AND4_X1
X31 w_r_3_ x2_i_0_ 32 NAND2_X1
X32 w_r_0_ w_r_1_ x2_i_3_ x2_i_2_ 33 AND4_X1
X33 w_r_0_ x2_i_3_ x2_i_2_ w_r_1_ 34 AOI22_X1
X34 33 34 35 NOR2_X1
X35 32 33 34 36 NOR3_X1
X36 32 35 37 XNOR2_X1
X37 w_r_2_ x2_i_1_ 38 NAND2_X1
X38 31 37 39 XNOR2_X1
X39 38 39 40 NOR2_X1
X40 40 37 31 41 AOI21_X1
X41 w_r_0_ w_r_3_ x2_i_4_ x2_i_1_ 42 AND4_X1
X42 w_r_0_ x2_i_4_ x2_i_1_ w_r_3_ 43 AOI22_X1
X43 42 43 44 OR2_X1
X44 33 36 45 OR2_X1
X45 w_r_4_ x2_i_0_ 46 NAND2_X1
X46 w_r_1_ w_r_2_ x2_i_3_ x2_i_2_ 47 AND4_X1
X47 w_r_1_ w_r_2_ x2_i_3_ x2_i_2_ 48 NAND4_X1
X48 w_r_1_ x2_i_3_ x2_i_2_ w_r_2_ 49 AOI22_X1
X49 46 47 49 50 OR3_X1
X50 46 47 49 51 OAI21_X1
X51 50 51 52 NAND2_X1
X52 45 50 51 53 NAND3_X1
X53 45 52 54 XOR2_X1
X54 44 54 55 XNOR2_X1
X55 41 55 56 OR2_X1
X56 56 57 INV_X1
X57 w_r_1_ w_r_4_ x2_i_4_ x2_i_1_ 58 AND4_X1
X58 w_r_0_ x2_i_5_ 59 AND2_X1
X59 w_r_1_ x2_i_4_ x2_i_1_ w_r_4_ 60 AOI22_X1
X60 58 60 61 NOR2_X1
X61 58 59 61 62 AOI21_X1
X62 w_r_0_ x2_i_6_ 63 NAND2_X1
X63 62 63 64 OR2_X1
X64 62 63 65 XNOR2_X1
X65 48 49 46 66 OAI21_X1
X66 w_r_5_ x2_i_0_ 67 NAND2_X1
X67 w_r_2_ w_r_3_ x2_i_3_ x2_i_2_ 68 AND4_X1
X68 w_r_2_ w_r_3_ x2_i_3_ x2_i_2_ 69 NAND4_X1
X69 w_r_2_ x2_i_3_ x2_i_2_ w_r_3_ 70 AOI22_X1
X70 67 68 70 71 OR3_X1
X71 67 68 70 72 OAI21_X1
X72 66 71 72 73 AND3_X1
X73 66 71 72 74 NAND3_X1
X74 59 61 75 XNOR2_X1
X75 66 71 72 76 AOI21_X1
X76 73 75 76 77 OR3_X1
X77 74 75 76 78 OAI21_X1
X78 w_r_1_ x2_i_5_ 79 NAND2_X1
X79 w_r_2_ w_r_5_ x2_i_4_ x2_i_1_ 80 AND4_X1
X80 w_r_2_ x2_i_4_ x2_i_1_ w_r_5_ 81 AOI22_X1
X81 80 81 82 NOR2_X1
X82 79 80 81 83 NOR3_X1
X83 79 82 84 XOR2_X1
X84 69 70 67 85 OAI21_X1
X85 w_r_6_ x2_i_0_ 86 NAND2_X1
X86 w_r_3_ w_r_4_ x2_i_3_ x2_i_2_ 87 AND4_X1
X87 w_r_3_ w_r_4_ x2_i_3_ x2_i_2_ 88 NAND4_X1
X88 w_r_3_ x2_i_3_ x2_i_2_ w_r_4_ 89 AOI22_X1
X89 86 87 89 90 OR3_X1
X90 86 87 89 91 OAI21_X1
X91 85 90 91 92 AND3_X1
X92 85 90 91 93 NAND3_X1
X93 85 90 91 94 AOI21_X1
X94 84 92 94 95 OR3_X1
X95 84 92 94 96 OAI21_X1
X96 78 95 96 97 AND3_X1
X97 78 95 96 98 NAND3_X1
X98 78 95 96 99 AOI21_X1
X99 97 99 100 NOR2_X1
X100 65 100 101 XOR2_X1
X101 53 54 44 102 OAI21_X1
X102 75 76 73 103 OAI21_X1
X103 77 103 104 NAND2_X1
X104 77 102 103 105 NAND3_X1
X105 102 104 106 XNOR2_X1
X106 42 106 107 NAND2_X1
X107 101 105 107 108 AOI21_X1
X108 98 99 65 109 OAI21_X1
X109 80 83 110 NOR2_X1
X110 w_r_1_ x2_i_7_ 111 NAND2_X1
X111 63 111 112 OR2_X1
X112 112 113 INV_X1
X113 w_r_1_ x2_i_6_ x2_i_7_ w_r_0_ 114 AOI22_X1
X114 113 114 115 NOR2_X1
X115 115 83 80 116 OAI21_X1
X116 110 115 117 XOR2_X1
X117 93 94 84 118 OAI21_X1
X118 w_r_2_ x2_i_5_ 119 NAND2_X1
X119 w_r_3_ w_r_6_ x2_i_4_ x2_i_1_ 120 AND4_X1
X120 w_r_3_ x2_i_4_ x2_i_1_ w_r_6_ 121 AOI22_X1
X121 120 121 122 NOR2_X1
X122 119 120 121 123 NOR3_X1
X123 119 122 124 XOR2_X1
X124 88 89 86 125 OAI21_X1
X125 w_r_7_ x2_i_0_ 126 NAND2_X1
X126 w_r_4_ w_r_5_ x2_i_3_ x2_i_2_ 127 AND4_X1
X127 w_r_4_ w_r_5_ x2_i_3_ x2_i_2_ 128 NAND4_X1
X128 w_r_4_ x2_i_3_ x2_i_2_ w_r_5_ 129 AOI22_X1
X129 126 127 129 130 OR3_X1
X130 126 127 129 131 OAI21_X1
X131 125 130 131 132 AND3_X1
X132 125 130 131 133 NAND3_X1
X133 125 130 131 134 AOI21_X1
X134 124 132 134 135 OR3_X1
X135 124 132 134 136 OAI21_X1
X136 118 135 136 137 AND3_X1
X137 118 135 136 138 NAND3_X1
X138 118 135 136 139 AOI21_X1
X139 117 137 139 140 OR3_X1
X140 117 137 139 141 OAI21_X1
X141 109 140 141 142 AND3_X1
X142 109 140 141 143 NAND3_X1
X143 109 140 141 144 AOI21_X1
X144 64 142 144 145 OR3_X1
X145 64 142 144 146 OAI21_X1
X146 108 145 146 147 AOI21_X1
X147 42 106 148 XNOR2_X1
X148 101 105 149 AND2_X1
X149 108 145 146 150 NAND3_X1
X150 108 147 148 149 151 NOR4_X1
X151 143 144 64 152 OAI21_X1
X152 138 139 117 153 OAI21_X1
X153 133 134 124 154 OAI21_X1
X154 128 129 126 155 OAI21_X1
X155 w_r_8_ x2_i_0_ 156 NAND2_X1
X156 w_r_5_ w_r_6_ x2_i_3_ x2_i_2_ 157 AND4_X1
X157 w_r_5_ w_r_6_ x2_i_3_ x2_i_2_ 158 NAND4_X1
X158 w_r_5_ x2_i_3_ x2_i_2_ w_r_6_ 159 AOI22_X1
X159 156 157 159 160 OR3_X1
X160 156 157 159 161 OAI21_X1
X161 155 160 161 162 AND3_X1
X162 155 160 161 163 NAND3_X1
X163 155 160 161 164 AOI21_X1
X164 w_r_3_ x2_i_5_ 165 NAND2_X1
X165 w_r_7_ x2_i_4_ 166 NAND2_X1
X166 w_r_4_ w_r_7_ x2_i_4_ x2_i_1_ 167 AND4_X1
X167 w_r_4_ x2_i_4_ x2_i_1_ w_r_7_ 168 AOI22_X1
X168 167 168 169 NOR2_X1
X169 165 167 168 170 NOR3_X1
X170 165 169 171 XOR2_X1
X171 162 164 171 172 OR3_X1
X172 171 164 162 173 OAI21_X1
X173 154 172 173 174 AND3_X1
X174 154 172 173 175 NAND3_X1
X175 154 172 173 176 AOI21_X1
X176 120 123 177 NOR2_X1
X177 w_r_0_ x2_i_8_ 178 NAND2_X1
X178 w_r_2_ x2_i_6_ 179 NAND2_X1
X179 w_r_2_ x2_i_7_ 180 NAND2_X1
X180 111 179 181 XOR2_X1
X181 w_r_0_ x2_i_8_ 181 182 NAND3_X1
X182 178 181 183 XNOR2_X1
X183 183 184 INV_X1
X184 177 184 185 NOR2_X1
X185 177 183 186 XNOR2_X1
X186 113 186 187 XNOR2_X1
X187 174 176 187 188 OR3_X1
X188 187 176 174 189 OAI21_X1
X189 153 188 189 190 AND3_X1
X190 190 191 INV_X1
X191 153 188 189 192 AOI21_X1
X192 116 190 192 193 OR3_X1
X193 116 190 192 194 OAI21_X1
X194 152 193 194 195 AND3_X1
X195 152 193 194 196 AOI21_X1
X196 150 195 196 197 NOR3_X1
X197 150 195 196 198 OR3_X1
X198 150 195 196 199 OAI21_X1
X199 57 151 198 199 200 AND4_X1
X200 57 151 198 199 201 NAND4_X1
X201 57 151 198 199 202 AOI22_X1
X202 x2_i_0_ x2_i_2_ w_r_0_ 203 AOI21_X1
X203 w_r_1_ x2_i_1_ w_r_2_ w_r_0_ 204 OAI211_X1
X204 40 203 204 205 NOR3_X1
X205 38 39 41 55 206 AOI22_X1
X206 56 151 205 206 207 NAND4_X1
X207 207 202 200 208 OAI21_X1
X208 200 202 207 209 OR3_X1
X209 208 209 210 NAND2_X1
X210 19 210 211 NOR2_X1
X211 19 210 212 XNOR2_X1
X212 w_i_1_ w_i_4_ x2_r_1_ x2_r_4_ 213 AND4_X1
X213 w_i_5_ x2_r_0_ 214 AND2_X1
X214 w_i_4_ x2_r_1_ x2_r_4_ w_i_1_ 215 AOI22_X1
X215 213 215 216 NOR2_X1
X216 213 214 216 217 AOI21_X1
X217 w_i_6_ x2_r_0_ 218 NAND2_X1
X218 217 218 219 OR2_X1
X219 217 218 220 XNOR2_X1
X220 w_i_2_ x2_r_2_ 221 AND2_X1
X221 w_i_3_ x2_r_1_ 221 222 AND3_X1
X222 w_i_2_ w_i_3_ x2_r_1_ x2_r_2_ 223 NAND4_X1
X223 w_i_0_ x2_r_4_ 224 NAND2_X1
X224 w_i_3_ x2_r_1_ x2_r_2_ w_i_2_ 225 AOI22_X1
X225 222 224 225 226 OR3_X1
X226 223 224 225 227 OAI21_X1
X227 w_i_0_ x2_r_5_ 228 NAND2_X1
X228 w_i_2_ w_i_3_ x2_r_2_ x2_r_3_ 229 AND4_X1
X229 w_i_2_ w_i_3_ x2_r_2_ x2_r_3_ 230 NAND4_X1
X230 w_i_3_ x2_r_2_ x2_r_3_ w_i_2_ 231 AOI22_X1
X231 228 229 231 232 OR3_X1
X232 228 229 231 233 OAI21_X1
X233 227 232 233 234 AND3_X1
X234 227 232 233 235 NAND3_X1
X235 214 216 236 XNOR2_X1
X236 227 232 233 237 AOI21_X1
X237 234 237 238 NOR2_X1
X238 235 236 237 239 OAI21_X1
X239 w_i_5_ x2_r_1_ 240 NAND2_X1
X240 w_i_4_ x2_r_5_ 241 NAND2_X1
X241 w_i_1_ w_i_4_ x2_r_2_ x2_r_5_ 242 AND4_X1
X242 w_i_4_ x2_r_2_ x2_r_5_ w_i_1_ 243 AOI22_X1
X243 242 243 244 NOR2_X1
X244 240 242 243 245 NOR3_X1
X245 240 244 246 XOR2_X1
X246 230 231 228 247 OAI21_X1
X247 w_i_0_ x2_r_6_ 248 NAND2_X1
X248 w_i_2_ w_i_3_ x2_r_3_ x2_r_4_ 249 AND4_X1
X249 w_i_2_ w_i_3_ x2_r_3_ x2_r_4_ 250 NAND4_X1
X250 w_i_3_ x2_r_3_ x2_r_4_ w_i_2_ 251 AOI22_X1
X251 248 249 251 252 OR3_X1
X252 248 249 251 253 OAI21_X1
X253 247 252 253 254 AND3_X1
X254 247 252 253 255 NAND3_X1
X255 247 252 253 256 AOI21_X1
X256 246 254 256 257 OR3_X1
X257 246 254 256 258 OAI21_X1
X258 239 257 258 259 AND3_X1
X259 239 257 258 260 NAND3_X1
X260 239 257 258 261 AOI21_X1
X261 259 261 262 NOR2_X1
X262 220 262 263 XOR2_X1
X263 w_i_2_ w_i_3_ x2_r_0_ x2_r_1_ 264 AND4_X1
X264 w_i_0_ x2_r_3_ 265 NAND2_X1
X265 w_i_3_ x2_r_0_ x2_r_1_ w_i_2_ 266 AOI22_X1
X266 264 266 267 NOR2_X1
X267 264 265 266 268 NOR3_X1
X268 264 268 269 OR2_X1
X269 224 225 222 270 OAI21_X1
X270 226 269 270 271 AND3_X1
X271 w_i_1_ w_i_4_ x2_r_0_ x2_r_3_ 272 AND4_X1
X272 w_i_4_ x2_r_0_ x2_r_3_ w_i_1_ 273 AOI22_X1
X273 272 273 274 OR2_X1
X274 274 275 INV_X1
X275 269 270 226 276 AOI21_X1
X276 271 276 277 NOR2_X1
X277 271 275 277 278 AOI21_X1
X278 236 238 279 XOR2_X1
X279 278 279 280 NOR2_X1
X280 278 279 281 XOR2_X1
X281 280 281 272 282 AOI21_X1
X282 263 282 283 NOR2_X1
X283 260 261 220 284 OAI21_X1
X284 242 245 285 NOR2_X1
X285 w_i_7_ x2_r_1_ 286 NAND2_X1
X286 218 286 287 OR2_X1
X287 287 288 INV_X1
X288 w_i_7_ x2_r_0_ x2_r_1_ w_i_6_ 289 AOI22_X1
X289 288 289 290 NOR2_X1
X290 290 245 242 291 OAI21_X1
X291 291 292 INV_X1
X292 285 290 293 XOR2_X1
X293 255 256 246 294 OAI21_X1
X294 w_i_5_ x2_r_2_ 295 NAND2_X1
X295 w_i_4_ x2_r_6_ 296 NAND2_X1
X296 w_i_1_ w_i_4_ x2_r_3_ x2_r_6_ 297 AND4_X1
X297 w_i_4_ x2_r_3_ x2_r_6_ w_i_1_ 298 AOI22_X1
X298 297 298 299 NOR2_X1
X299 295 297 298 300 NOR3_X1
X300 295 299 301 XOR2_X1
X301 250 251 248 302 OAI21_X1
X302 w_i_0_ x2_r_7_ 303 NAND2_X1
X303 w_i_2_ w_i_3_ x2_r_4_ x2_r_5_ 304 AND4_X1
X304 w_i_2_ w_i_3_ x2_r_4_ x2_r_5_ 305 NAND4_X1
X305 w_i_3_ x2_r_4_ x2_r_5_ w_i_2_ 306 AOI22_X1
X306 303 304 306 307 OR3_X1
X307 303 304 306 308 OAI21_X1
X308 302 307 308 309 AND3_X1
X309 302 307 308 310 NAND3_X1
X310 302 307 308 311 AOI21_X1
X311 301 309 311 312 OR3_X1
X312 301 309 311 313 OAI21_X1
X313 294 312 313 314 AND3_X1
X314 294 312 313 315 NAND3_X1
X315 294 312 313 316 AOI21_X1
X316 293 314 316 317 OR3_X1
X317 293 314 316 318 OAI21_X1
X318 284 317 318 319 AND3_X1
X319 284 317 318 320 AOI21_X1
X320 319 320 321 NOR2_X1
X321 219 319 320 322 NOR3_X1
X322 219 321 323 XNOR2_X1
X323 283 323 324 NAND2_X1
X324 283 323 325 XNOR2_X1
X325 w_i_0_ x2_r_0_ 221 326 NAND3_X1
X326 265 267 327 XNOR2_X1
X327 w_i_0_ x2_r_0_ 221 327 328 NAND4_X1
X328 326 327 329 XNOR2_X1
X329 w_i_1_ x2_r_2_ 329 330 NAND3_X1
X330 328 330 331 AND2_X1
X331 275 277 332 XNOR2_X1
X332 331 332 333 OR2_X1
X333 272 281 334 XNOR2_X1
X334 263 282 335 AND2_X1
X335 283 334 335 336 OR3_X1
X336 325 333 336 337 NOR3_X1
X337 319 322 338 NOR2_X1
X338 315 317 339 NAND2_X1
X339 310 311 301 340 OAI21_X1
X340 305 306 303 341 OAI21_X1
X341 w_i_0_ x2_r_8_ 342 NAND2_X1
X342 w_i_2_ w_i_3_ x2_r_5_ x2_r_6_ 343 AND4_X1
X343 w_i_2_ w_i_3_ x2_r_5_ x2_r_6_ 344 NAND4_X1
X344 w_i_3_ x2_r_5_ x2_r_6_ w_i_2_ 345 AOI22_X1
X345 342 343 345 346 OR3_X1
X346 342 343 345 347 OAI21_X1
X347 341 346 347 348 AND3_X1
X348 341 346 347 349 NAND3_X1
X349 341 346 347 350 AOI21_X1
X350 w_i_5_ x2_r_3_ 351 NAND2_X1
X351 w_i_4_ x2_r_7_ 352 NAND2_X1
X352 w_i_1_ w_i_4_ x2_r_4_ x2_r_7_ 353 AND4_X1
X353 w_i_4_ x2_r_4_ x2_r_7_ w_i_1_ 354 AOI22_X1
X354 353 354 355 NOR2_X1
X355 351 353 354 356 NOR3_X1
X356 351 355 357 XOR2_X1
X357 348 350 357 358 OR3_X1
X358 357 350 348 359 OAI21_X1
X359 340 358 359 360 AND3_X1
X360 340 358 359 361 NAND3_X1
X361 340 358 359 362 AOI21_X1
X362 360 362 363 NOR2_X1
X363 297 300 364 NOR2_X1
X364 w_i_8_ x2_r_0_ 365 AND2_X1
X365 w_i_6_ x2_r_2_ 366 NAND2_X1
X366 w_i_7_ x2_r_2_ 367 NAND2_X1
X367 286 366 368 NOR2_X1
X368 286 366 369 XOR2_X1
X369 365 369 370 XOR2_X1
X370 370 371 INV_X1
X371 364 371 372 NOR2_X1
X372 364 370 373 XNOR2_X1
X373 288 373 374 XNOR2_X1
X374 363 374 375 XOR2_X1
X375 375 317 315 376 AOI21_X1
X376 339 375 377 XNOR2_X1
X377 292 377 378 XNOR2_X1
X378 338 378 379 OR2_X1
X379 379 380 INV_X1
X380 338 378 381 XOR2_X1
X381 283 323 381 382 AND3_X1
X382 324 381 383 XNOR2_X1
X383 337 383 384 NAND2_X1
X384 337 383 385 XNOR2_X1
X385 331 332 386 NAND2_X1
X386 329 x2_r_2_ w_i_1_ 387 AOI21_X1
X387 x2_r_0_ x2_r_2_ w_i_0_ 388 AOI21_X1
X388 w_i_0_ w_i_2_ 389 NOR2_X1
X389 6 388 389 390 NOR3_X1
X390 w_i_1_ 330 390 391 NAND3_X1
X391 325 336 387 391 392 NOR4_X1
X392 333 386 392 393 NAND3_X1
X393 333 383 386 392 394 NAND4_X1
X394 385 393 395 XNOR2_X1
X395 395 396 INV_X1
X396 212 395 397 NOR2_X1
X397 212 395 398 AND2_X1
X398 1 397 398 y2_i_0_ NOR3_X1
X399 212 396 399 AND2_X1
X400 212 396 400 NAND2_X1
X401 x1_i_0_ 210 401 OR2_X1
X402 191 193 402 NAND2_X1
X403 175 176 187 403 OAI21_X1
X404 163 164 171 404 OAI21_X1
X405 158 159 156 405 OAI21_X1
X406 w_r_9_ x2_i_0_ 406 NAND2_X1
X407 w_r_6_ w_r_7_ x2_i_3_ x2_i_2_ 407 AND4_X1
X408 w_r_6_ w_r_7_ x2_i_3_ x2_i_2_ 408 NAND4_X1
X409 w_r_6_ x2_i_3_ x2_i_2_ w_r_7_ 409 AOI22_X1
X410 406 407 409 410 OR3_X1
X411 406 407 409 411 OAI21_X1
X412 405 410 411 412 AND3_X1
X413 405 410 411 413 NAND3_X1
X414 405 410 411 414 AOI21_X1
X415 w_r_4_ x2_i_5_ 415 AND2_X1
X416 w_r_5_ w_r_8_ x2_i_4_ x2_i_1_ 416 AND4_X1
X417 w_r_5_ x2_i_4_ x2_i_1_ w_r_8_ 417 AOI22_X1
X418 416 417 418 NOR2_X1
X419 415 418 419 XNOR2_X1
X420 412 414 419 420 OR3_X1
X421 419 414 412 421 OAI21_X1
X422 404 420 421 422 AND3_X1
X423 404 420 421 423 NAND3_X1
X424 404 420 421 424 AOI21_X1
X425 182 179 111 425 OAI21_X1
X426 167 170 426 NOR2_X1
X427 w_r_1_ x2_i_8_ 427 AND2_X1
X428 w_r_3_ x2_i_6_ 428 NAND2_X1
X429 w_r_3_ x2_i_7_ 429 NAND2_X1
X430 180 428 430 NOR2_X1
X431 180 428 431 XOR2_X1
X432 427 431 432 XOR2_X1
X433 432 433 INV_X1
X434 426 433 434 NOR2_X1
X435 426 432 435 XNOR2_X1
X436 425 435 436 XNOR2_X1
X437 422 424 436 437 OR3_X1
X438 436 424 422 438 OAI21_X1
X439 403 437 438 439 AND3_X1
X440 403 437 438 440 AOI21_X1
X441 439 440 441 NOR2_X1
X442 185 186 113 442 AOI21_X1
X443 w_r_0_ x2_i_9_ 443 NAND2_X1
X444 442 443 444 NOR2_X1
X445 442 443 445 XOR2_X1
X446 441 445 446 XOR2_X1
X447 402 446 447 NAND2_X1
X448 402 446 448 XOR2_X1
X449 195 448 449 AND2_X1
X450 195 448 450 XOR2_X1
X451 197 450 451 XNOR2_X1
X452 201 202 207 452 OAI21_X1
X453 451 452 453 XNOR2_X1
X454 x1_i_1_ 453 454 AND2_X1
X455 20 453 455 NOR2_X1
X456 20 453 456 XNOR2_X1
X457 x1_i_1_ 453 457 XNOR2_X1
X458 401 456 458 XNOR2_X1
X459 376 377 292 459 AOI21_X1
X460 361 362 374 460 OAI21_X1
X461 349 350 357 461 OAI21_X1
X462 344 345 342 462 OAI21_X1
X463 w_i_0_ x2_r_9_ 463 NAND2_X1
X464 w_i_3_ x2_r_7_ 464 NAND2_X1
X465 w_i_2_ w_i_3_ x2_r_6_ x2_r_7_ 465 AND4_X1
X466 w_i_3_ x2_r_6_ x2_r_7_ w_i_2_ 466 AOI22_X1
X467 463 465 466 467 NOR3_X1
X468 463 465 466 468 OR3_X1
X469 463 465 466 469 OAI21_X1
X470 462 468 469 470 AND3_X1
X471 470 471 INV_X1
X472 462 468 469 472 AOI21_X1
X473 w_i_5_ x2_r_4_ 473 AND2_X1
X474 w_i_1_ x2_r_8_ 474 NAND2_X1
X475 241 474 475 NOR2_X1
X476 241 474 476 XOR2_X1
X477 473 476 477 XNOR2_X1
X478 470 472 477 478 OR3_X1
X479 477 472 470 479 OAI21_X1
X480 461 478 479 480 AND3_X1
X481 461 478 479 481 AOI21_X1
X482 368 369 365 482 AOI21_X1
X483 353 356 483 NOR2_X1
X484 w_i_8_ x2_r_1_ 484 AND2_X1
X485 w_i_6_ x2_r_3_ 485 NAND2_X1
X486 w_i_7_ x2_r_3_ 486 NAND2_X1
X487 367 485 487 NOR2_X1
X488 367 485 488 XOR2_X1
X489 484 488 489 XOR2_X1
X490 489 490 INV_X1
X491 483 490 491 NOR2_X1
X492 483 489 492 XNOR2_X1
X493 492 493 INV_X1
X494 482 493 494 NOR2_X1
X495 482 492 495 XOR2_X1
X496 480 481 495 496 NOR3_X1
X497 480 481 495 497 OR3_X1
X498 495 481 480 498 OAI21_X1
X499 460 497 498 499 AND3_X1
X500 460 497 498 500 AOI21_X1
X501 499 500 501 NOR2_X1
X502 372 373 288 502 AOI21_X1
X503 x2_r_0_ w_i_9_ 503 NAND2_X1
X504 502 503 504 OR2_X1
X505 504 505 INV_X1
X506 502 503 506 XNOR2_X1
X507 499 500 506 507 NOR3_X1
X508 501 506 508 XOR2_X1
X509 459 508 509 NOR2_X1
X510 459 508 510 XOR2_X1
X511 380 510 511 AND2_X1
X512 379 510 512 XNOR2_X1
X513 382 512 513 NAND2_X1
X514 382 512 514 XNOR2_X1
X515 384 394 514 515 NAND3_X1
X516 337 383 512 516 NAND3_X1
X517 515 516 394 514 517 OAI211_X1
X518 517 518 INV_X1
X519 458 517 519 AND2_X1
X520 458 517 520 NAND2_X1
X521 458 518 521 XNOR2_X1
X522 458 517 522 XNOR2_X1
X523 400 521 523 NAND2_X1
X524 1 399 522 524 AOI21_X1
X525 523 524 y2_i_1_ AND2_X1
X526 519 521 400 525 AOI21_X1
X527 520 523 526 NAND2_X1
X528 455 457 401 527 AOI21_X1
X529 450 200 197 528 OAI21_X1
X530 528 451 209 529 OAI21_X1
X531 439 441 445 530 AOI21_X1
X532 423 437 531 NAND2_X1
X533 413 414 419 532 OAI21_X1
X534 408 409 406 533 OAI21_X1
X535 w_r_10_ x2_i_0_ 534 NAND2_X1
X536 w_r_7_ w_r_8_ x2_i_3_ x2_i_2_ 535 AND4_X1
X537 w_r_7_ x2_i_3_ x2_i_2_ w_r_8_ 536 AOI22_X1
X538 534 535 536 537 NOR3_X1
X539 534 535 536 538 OR3_X1
X540 534 535 536 539 OAI21_X1
X541 533 538 539 540 AND3_X1
X542 540 541 INV_X1
X543 533 538 539 542 AOI21_X1
X544 w_r_5_ x2_i_5_ 543 NAND2_X1
X545 w_r_9_ x2_i_4_ 544 NAND2_X1
X546 w_r_6_ w_r_9_ x2_i_4_ x2_i_1_ 545 AND4_X1
X547 w_r_6_ x2_i_4_ x2_i_1_ w_r_9_ 546 AOI22_X1
X548 545 546 547 NOR2_X1
X549 543 545 546 548 NOR3_X1
X550 543 547 549 XOR2_X1
X551 540 542 549 550 OR3_X1
X552 549 542 540 551 OAI21_X1
X553 532 550 551 552 AND3_X1
X554 532 550 551 553 AOI21_X1
X555 552 553 554 NOR2_X1
X556 430 431 427 555 AOI21_X1
X557 416 418 415 556 AOI21_X1
X558 w_r_2_ x2_i_8_ 557 NAND2_X1
X559 w_r_4_ x2_i_6_ 558 NAND2_X1
X560 w_r_4_ x2_i_7_ 559 NAND2_X1
X561 429 558 560 NOR2_X1
X562 429 558 561 XOR2_X1
X563 w_r_2_ x2_i_8_ 561 562 AND3_X1
X564 557 561 563 XNOR2_X1
X565 563 564 INV_X1
X566 556 564 565 NOR2_X1
X567 556 563 566 XNOR2_X1
X568 566 567 INV_X1
X569 555 567 568 NOR2_X1
X570 555 566 569 XOR2_X1
X571 552 553 569 570 NOR3_X1
X572 554 569 571 XNOR2_X1
X573 531 571 572 AND2_X1
X574 531 571 573 OR2_X1
X575 531 571 574 XOR2_X1
X576 434 435 425 575 AOI21_X1
X577 w_r_1_ x2_i_10_ 576 NAND2_X1
X578 443 576 577 NOR2_X1
X579 w_r_1_ x2_i_9_ x2_i_10_ w_r_0_ 578 AOI22_X1
X580 577 578 579 NOR2_X1
X581 575 577 578 580 NOR3_X1
X582 575 579 581 XOR2_X1
X583 581 582 INV_X1
X584 574 582 583 XNOR2_X1
X585 530 583 584 NOR2_X1
X586 530 583 585 XOR2_X1
X587 444 585 586 XNOR2_X1
X588 447 586 587 NOR2_X1
X589 447 586 588 XOR2_X1
X590 449 588 589 AND2_X1
X591 449 588 590 XOR2_X1
X592 529 590 591 XNOR2_X1
X593 21 591 592 OR2_X1
X594 x1_i_2_ 591 593 NAND2_X1
X595 x1_i_2_ 591 594 NOR2_X1
X596 21 591 595 XNOR2_X1
X597 527 595 596 XNOR2_X1
X598 513 516 514 394 597 OAI211_X1
X599 499 507 598 NOR2_X1
X600 480 496 599 NOR2_X1
X601 471 478 600 AND2_X1
X602 465 467 601 NOR2_X1
X603 w_i_0_ x2_r_10_ 602 NAND2_X1
X604 w_i_2_ x2_r_8_ 603 NAND2_X1
X605 w_i_3_ x2_r_8_ 604 NAND2_X1
X606 464 603 605 NOR2_X1
X607 464 603 606 XOR2_X1
X608 w_i_0_ x2_r_10_ 606 607 AND3_X1
X609 602 606 608 XNOR2_X1
X610 608 467 465 609 OAI21_X1
X611 601 608 610 XNOR2_X1
X612 w_i_1_ x2_r_9_ 611 NAND2_X1
X613 w_i_4_ x2_r_9_ 612 NAND2_X1
X614 296 611 613 NOR2_X1
X615 296 611 614 XOR2_X1
X616 w_i_5_ x2_r_5_ 614 615 AND3_X1
X617 614 x2_r_5_ w_i_5_ 616 AOI21_X1
X618 615 616 617 NOR2_X1
X619 610 617 618 NAND2_X1
X620 610 617 619 XNOR2_X1
X621 600 619 620 NOR2_X1
X622 600 619 621 XOR2_X1
X623 487 488 484 622 AOI21_X1
X624 475 476 473 623 AOI21_X1
X625 w_i_6_ x2_r_4_ 624 NAND2_X1
X626 w_i_7_ x2_r_4_ 625 NAND2_X1
X627 486 624 626 NOR2_X1
X628 486 624 627 XOR2_X1
X629 w_i_8_ x2_r_2_ 627 628 AND3_X1
X630 627 x2_r_2_ w_i_8_ 629 AOI21_X1
X631 628 629 630 NOR2_X1
X632 630 631 INV_X1
X633 623 631 632 NOR2_X1
X634 623 630 633 XNOR2_X1
X635 633 634 INV_X1
X636 622 634 635 NOR2_X1
X637 622 633 636 XNOR2_X1
X638 621 636 637 XNOR2_X1
X639 599 637 638 NOR2_X1
X640 599 637 639 XOR2_X1
X641 491 494 640 NOR2_X1
X642 x2_r_1_ w_i_10_ 641 NAND2_X1
X643 503 641 642 NOR2_X1
X644 x2_r_1_ w_i_9_ w_i_10_ x2_r_0_ 643 AOI22_X1
X645 642 643 644 NOR2_X1
X646 640 642 643 645 NOR3_X1
X647 640 644 646 XNOR2_X1
X648 639 646 647 XNOR2_X1
X649 598 647 648 NOR2_X1
X650 598 647 649 XOR2_X1
X651 504 649 650 XNOR2_X1
X652 509 650 651 AND2_X1
X653 509 650 652 XOR2_X1
X654 511 652 653 AND2_X1
X655 511 652 654 XOR2_X1
X656 597 654 655 XNOR2_X1
X657 596 655 656 NAND2_X1
X658 596 655 657 NOR2_X1
X659 596 655 658 XOR2_X1
X660 start 526 658 659 OAI21_X1
X661 659 658 526 y2_i_2_ AOI21_X1
X662 656 657 525 660 OAI21_X1
X663 593 594 527 661 OAI21_X1
X664 589 590 529 662 AOI21_X1
X665 584 585 444 663 AOI21_X1
X666 572 573 582 664 AOI21_X1
X667 552 570 665 NOR2_X1
X668 541 550 666 AND2_X1
X669 535 537 667 NOR2_X1
X670 w_r_11_ x2_i_0_ 668 NAND2_X1
X671 x2_i_3_ w_r_9_ 669 NAND2_X1
X672 w_r_8_ x2_i_3_ w_r_9_ x2_i_2_ 670 AND4_X1
X673 w_r_8_ x2_i_3_ w_r_9_ x2_i_2_ 671 AOI22_X1
X674 670 671 672 NOR2_X1
X675 668 670 671 673 NOR3_X1
X676 668 672 674 XNOR2_X1
X677 674 537 535 675 OAI21_X1
X678 535 537 674 676 NOR3_X1
X679 667 674 677 XNOR2_X1
X680 w_r_6_ x2_i_5_ 678 AND2_X1
X681 w_r_10_ x2_i_1_ 679 NAND2_X1
X682 w_r_10_ x2_i_4_ 680 NAND2_X1
X683 166 679 681 NOR2_X1
X684 166 679 682 XOR2_X1
X685 678 682 683 XOR2_X1
X686 683 684 INV_X1
X687 677 683 685 XNOR2_X1
X688 666 685 686 OR2_X1
X689 686 687 INV_X1
X690 666 685 688 XOR2_X1
X691 545 548 689 NOR2_X1
X692 w_r_3_ x2_i_8_ 690 AND2_X1
X693 w_r_5_ x2_i_6_ 691 NAND2_X1
X694 w_r_5_ x2_i_7_ 692 NAND2_X1
X695 559 691 693 NOR2_X1
X696 559 691 694 XOR2_X1
X697 690 694 695 XOR2_X1
X698 695 548 545 696 OAI21_X1
X699 689 695 697 XNOR2_X1
X700 697 562 560 698 OAI21_X1
X701 560 562 697 699 OR3_X1
X702 698 699 700 AND2_X1
X703 688 700 701 AND2_X1
X704 688 700 702 NAND2_X1
X705 688 700 703 XNOR2_X1
X706 665 703 704 NOR2_X1
X707 665 703 705 XOR2_X1
X708 565 568 706 NOR2_X1
X709 w_r_2_ x2_i_9_ 707 NAND2_X1
X710 w_r_2_ x2_i_10_ 708 NAND2_X1
X711 576 707 709 NOR2_X1
X712 576 707 710 XOR2_X1
X713 w_r_0_ x2_i_11_ 710 711 AND3_X1
X714 710 x2_i_11_ w_r_0_ 712 AOI21_X1
X715 711 712 713 NOR2_X1
X716 577 713 714 NAND2_X1
X717 577 713 715 XOR2_X1
X718 715 716 INV_X1
X719 706 716 717 NOR2_X1
X720 706 715 718 XNOR2_X1
X721 705 718 719 XNOR2_X1
X722 664 719 720 OR2_X1
X723 664 719 721 XOR2_X1
X724 580 721 722 NAND2_X1
X725 580 721 723 XNOR2_X1
X726 663 723 724 OR2_X1
X727 663 723 725 NAND2_X1
X728 587 724 725 726 AOI21_X1
X729 587 724 725 727 AND3_X1
X730 726 727 728 NOR2_X1
X731 662 728 729 XNOR2_X1
X732 x1_i_3_ 729 730 AND2_X1
X733 22 729 731 NOR2_X1
X734 22 729 732 NAND2_X1
X735 22 729 733 XNOR2_X1
X736 661 733 734 XOR2_X1
X737 653 654 597 735 AOI21_X1
X738 648 649 505 736 AOI21_X1
X739 638 639 646 737 AOI21_X1
X740 620 621 636 738 AOI21_X1
X741 609 618 739 AND2_X1
X742 w_i_0_ x2_r_11_ 740 AND2_X1
X743 w_i_2_ x2_r_9_ 741 AND2_X1
X744 w_i_2_ x2_r_9_ 742 NAND2_X1
X745 604 741 743 XNOR2_X1
X746 740 743 744 NAND2_X1
X747 740 743 745 XOR2_X1
X748 745 607 605 746 OAI21_X1
X749 605 607 745 747 OR3_X1
X750 w_i_5_ x2_r_6_ 748 AND2_X1
X751 w_i_1_ x2_r_10_ 749 NAND2_X1
X752 w_i_4_ x2_r_10_ 750 NAND2_X1
X753 352 749 751 NOR2_X1
X754 352 749 752 XOR2_X1
X755 748 752 753 XOR2_X1
X756 746 747 753 754 AND3_X1
X757 746 747 753 755 NAND3_X1
X758 753 747 746 756 AOI21_X1
X759 754 756 757 OR2_X1
X760 739 757 758 OR2_X1
X761 758 759 INV_X1
X762 739 757 760 XOR2_X1
X763 w_i_8_ x2_r_3_ 761 NAND2_X1
X764 w_i_6_ x2_r_5_ 762 NAND2_X1
X765 w_i_7_ x2_r_5_ 763 NAND2_X1
X766 625 762 764 XOR2_X1
X767 w_i_8_ x2_r_3_ 764 765 NAND3_X1
X768 761 764 766 XNOR2_X1
X769 766 615 613 767 OAI21_X1
X770 613 615 766 768 OR3_X1
X771 767 768 769 AND2_X1
X772 769 628 626 770 OAI21_X1
X773 626 628 769 771 OR3_X1
X774 770 771 772 AND2_X1
X775 760 772 773 AND2_X1
X776 760 772 774 NAND2_X1
X777 760 772 775 XNOR2_X1
X778 738 775 776 NOR2_X1
X779 738 775 777 XOR2_X1
X780 632 635 778 NOR2_X1
X781 x2_r_2_ w_i_9_ 779 NAND2_X1
X782 x2_r_2_ w_i_10_ 780 NAND2_X1
X783 641 779 781 NOR2_X1
X784 641 779 782 XOR2_X1
X785 x2_r_0_ w_i_11_ 782 783 AND3_X1
X786 782 w_i_11_ x2_r_0_ 784 AOI21_X1
X787 783 784 785 NOR2_X1
X788 642 785 786 AND2_X1
X789 642 785 787 XOR2_X1
X790 787 788 INV_X1
X791 778 788 789 NOR2_X1
X792 778 787 790 XNOR2_X1
X793 777 790 791 XNOR2_X1
X794 737 791 792 OR2_X1
X795 737 791 793 XOR2_X1
X796 645 793 794 NAND2_X1
X797 645 793 795 XNOR2_X1
X798 736 795 796 OR2_X1
X799 796 797 INV_X1
X800 736 795 798 XOR2_X1
X801 651 798 799 NAND2_X1
X802 651 798 800 XNOR2_X1
X803 735 800 801 XOR2_X1
X804 734 801 802 NOR2_X1
X805 734 801 803 XOR2_X1
X806 start 660 803 804 OAI21_X1
X807 804 803 660 y2_i_3_ AOI21_X1
X808 802 803 660 805 AOI21_X1
X809 731 732 661 806 AOI21_X1
X810 720 722 807 NAND2_X1
X811 704 705 718 808 AOI21_X1
X812 675 676 684 809 OAI21_X1
X813 670 673 810 OR2_X1
X814 w_r_12_ x2_i_0_ 811 AND2_X1
X815 w_r_10_ x2_i_2_ 812 NAND2_X1
X816 x2_i_3_ w_r_10_ 813 NAND2_X1
X817 669 812 814 XOR2_X1
X818 811 814 815 NAND2_X1
X819 811 814 816 XOR2_X1
X820 810 816 817 AND2_X1
X821 810 816 818 XOR2_X1
X822 w_r_7_ x2_i_5_ 819 AND2_X1
X823 w_r_11_ x2_i_4_ 820 AND2_X1
X824 w_r_11_ x2_i_4_ 821 NAND2_X1
X825 w_r_8_ x2_i_1_ 820 822 AND3_X1
X826 w_r_8_ x2_i_4_ x2_i_1_ w_r_11_ 823 AOI22_X1
X827 822 823 824 NOR2_X1
X828 819 824 825 XOR2_X1
X829 818 825 826 XOR2_X1
X830 809 826 827 XNOR2_X1
X831 693 694 690 828 AOI21_X1
X832 828 829 INV_X1
X833 681 682 678 830 AOI21_X1
X834 w_r_4_ x2_i_8_ 831 NAND2_X1
X835 w_r_6_ x2_i_6_ 832 NAND2_X1
X836 w_r_6_ x2_i_7_ 833 NAND2_X1
X837 692 832 834 XOR2_X1
X838 w_r_4_ x2_i_8_ 834 835 NAND3_X1
X839 831 834 836 XNOR2_X1
X840 836 837 INV_X1
X841 830 837 838 NOR2_X1
X842 830 836 839 XNOR2_X1
X843 829 839 840 XNOR2_X1
X844 827 840 841 NOR2_X1
X845 827 840 842 OR2_X1
X846 827 840 843 AND2_X1
X847 827 840 844 NAND2_X1
X848 842 844 687 701 845 OAI211_X1
X849 845 846 INV_X1
X850 686 702 841 843 847 OAI211_X1
X851 696 698 848 AND2_X1
X852 848 849 INV_X1
X853 w_r_0_ x2_i_12_ 850 NAND2_X1
X854 w_r_1_ x2_i_11_ 851 NAND2_X1
X855 w_r_3_ x2_i_9_ 852 NAND2_X1
X856 w_r_3_ x2_i_10_ 853 NAND2_X1
X857 708 852 854 NOR2_X1
X858 708 852 855 XOR2_X1
X859 w_r_1_ x2_i_11_ 855 856 AND3_X1
X860 851 855 857 XNOR2_X1
X861 857 711 709 858 OAI21_X1
X862 709 711 857 859 OR3_X1
X863 858 859 860 AND2_X1
X864 w_r_0_ x2_i_12_ 860 861 NAND3_X1
X865 850 860 862 XNOR2_X1
X866 849 862 863 NAND2_X1
X867 848 862 864 XNOR2_X1
X868 577 713 864 865 NAND3_X1
X869 714 864 866 XNOR2_X1
X870 845 847 866 867 AND3_X1
X871 866 847 845 868 AOI21_X1
X872 867 868 869 NOR2_X1
X873 808 867 868 870 OR3_X1
X874 870 871 INV_X1
X875 808 869 872 XNOR2_X1
X876 717 872 873 AND2_X1
X877 717 872 874 XNOR2_X1
X878 874 722 720 875 AOI21_X1
X879 807 874 876 XOR2_X1
X880 724 876 877 XNOR2_X1
X881 589 727 590 529 878 AOI211_X1
X882 726 878 879 NOR2_X1
X883 877 879 880 XOR2_X1
X884 23 880 881 OR2_X1
X885 x1_i_4_ 880 882 NAND2_X1
X886 x1_i_4_ 880 883 NOR2_X1
X887 23 880 884 XNOR2_X1
X888 806 884 885 XNOR2_X1
X889 799 800 735 886 OAI21_X1
X890 792 794 887 NAND2_X1
X891 776 777 790 888 AOI21_X1
X892 746 755 889 NAND2_X1
X893 744 742 604 890 OAI21_X1
X894 w_i_0_ x2_r_12_ 891 NAND2_X1
X895 w_i_3_ x2_r_10_ 892 AND2_X1
X896 w_i_3_ x2_r_10_ 893 NAND2_X1
X897 w_i_3_ x2_r_9_ x2_r_10_ w_i_2_ 894 AOI22_X1
X898 894 892 741 895 AOI21_X1
X899 891 895 896 XNOR2_X1
X900 890 896 897 AND2_X1
X901 890 896 898 XOR2_X1
X902 w_i_5_ x2_r_7_ 899 AND2_X1
X903 w_i_4_ x2_r_11_ 900 AND2_X1
X904 w_i_4_ x2_r_11_ 901 NAND2_X1
X905 474 901 902 NOR2_X1
X906 w_i_4_ x2_r_8_ x2_r_11_ w_i_1_ 903 AOI22_X1
X907 902 903 904 NOR2_X1
X908 899 904 905 XOR2_X1
X909 898 905 906 AND2_X1
X910 898 905 907 XOR2_X1
X911 889 907 908 XOR2_X1
X912 765 763 624 909 OAI21_X1
X913 751 752 748 910 AOI21_X1
X914 w_i_8_ x2_r_4_ 911 NAND2_X1
X915 w_i_6_ x2_r_6_ 912 NAND2_X1
X916 w_i_7_ x2_r_6_ 913 NAND2_X1
X917 763 912 914 XOR2_X1
X918 w_i_8_ x2_r_4_ 914 915 NAND3_X1
X919 911 914 916 XNOR2_X1
X920 916 917 INV_X1
X921 910 917 918 NOR2_X1
X922 910 916 919 XNOR2_X1
X923 909 919 920 XOR2_X1
X924 908 920 921 AND2_X1
X925 908 920 922 NAND2_X1
X926 908 920 923 NOR2_X1
X927 908 920 924 OR2_X1
X928 922 924 759 773 925 OAI211_X1
X929 925 926 INV_X1
X930 758 774 921 923 927 OAI211_X1
X931 767 770 928 AND2_X1
X932 x2_r_0_ w_i_12_ 929 NAND2_X1
X933 x2_r_1_ w_i_11_ 930 AND2_X1
X934 x2_r_3_ w_i_9_ 931 NAND2_X1
X935 x2_r_3_ w_i_10_ 932 NAND2_X1
X936 780 931 933 NOR2_X1
X937 780 931 934 XOR2_X1
X938 930 934 935 XOR2_X1
X939 935 783 781 936 OAI21_X1
X940 781 783 935 937 OR3_X1
X941 936 937 938 AND2_X1
X942 x2_r_0_ w_i_12_ 938 939 NAND3_X1
X943 929 938 940 XNOR2_X1
X944 940 941 INV_X1
X945 928 940 942 XNOR2_X1
X946 786 942 943 NAND2_X1
X947 786 942 944 XOR2_X1
X948 925 927 944 945 AND3_X1
X949 944 927 925 946 AOI21_X1
X950 945 946 947 NOR2_X1
X951 888 945 946 948 NOR3_X1
X952 888 947 949 XNOR2_X1
X953 789 949 950 XNOR2_X1
X954 950 794 792 951 AOI21_X1
X955 887 950 952 XNOR2_X1
X956 797 952 953 AND2_X1
X957 796 952 954 XNOR2_X1
X958 886 954 955 AND2_X1
X959 886 954 956 NOR2_X1
X960 955 956 957 OR2_X1
X961 885 957 958 NAND2_X1
X962 885 957 959 XNOR2_X1
X963 805 959 960 NOR2_X1
X964 805 959 961 AND2_X1
X965 1 960 961 y2_i_4_ NOR3_X1
X966 958 959 805 962 OAI21_X1
X967 882 883 806 963 OAI21_X1
X968 663 723 876 877 878 726 964 OAI33_X1
X969 863 865 965 NAND2_X1
X970 846 867 966 NOR2_X1
X971 841 826 809 967 AOI21_X1
X972 817 818 825 968 AOI21_X1
X973 815 812 669 969 OAI21_X1
X974 w_r_13_ x2_i_0_ 970 AND2_X1
X975 w_r_11_ x2_i_2_ 971 NAND2_X1
X976 813 971 972 XOR2_X1
X977 970 972 973 NAND2_X1
X978 970 972 974 XOR2_X1
X979 969 974 975 AND2_X1
X980 969 974 976 XOR2_X1
X981 w_r_8_ x2_i_5_ 977 AND2_X1
X982 w_r_12_ x2_i_1_ 978 NAND2_X1
X983 w_r_12_ x2_i_4_ 979 NAND2_X1
X984 544 978 980 NOR2_X1