* SPICE netlist generated by Yosys 0.9 (git sha1 1979e0b)

.SUBCKT butterfly x1_r_0_ x1_r_1_ x1_r_2_ x1_r_3_ x1_r_4_ x1_r_5_ x1_r_6_ x1_r_7_ x1_r_8_ x1_r_9_ x1_r_10_ x1_r_11_ x1_r_12_ x1_r_13_ x1_r_14_ x1_r_15_ x1_i_0_ x1_i_1_ x1_i_2_ x1_i_3_ x1_i_4_ x1_i_5_ x1_i_6_ x1_i_7_ x1_i_8_ x1_i_9_ x1_i_10_ x1_i_11_ x1_i_12_ x1_i_13_ x1_i_14_ x1_i_15_ x2_r_0_ x2_r_1_ x2_r_2_ x2_r_3_ x2_r_4_ x2_r_5_ x2_r_6_ x2_r_7_ x2_r_8_ x2_r_9_ x2_r_10_ x2_r_11_ x2_r_12_ x2_r_13_ x2_r_14_ x2_r_15_ x2_i_0_ x2_i_1_ x2_i_2_ x2_i_3_ x2_i_4_ x2_i_5_ x2_i_6_ x2_i_7_ x2_i_8_ x2_i_9_ x2_i_10_ x2_i_11_ x2_i_12_ x2_i_13_ x2_i_14_ x2_i_15_ w_r_0_ w_r_1_ w_r_2_ w_r_3_ w_r_4_ w_r_5_ w_r_6_ w_r_7_ w_r_8_ w_r_9_ w_r_10_ w_r_11_ w_r_12_ w_r_13_ w_r_14_ w_r_15_ w_i_0_ w_i_1_ w_i_2_ w_i_3_ w_i_4_ w_i_5_ w_i_6_ w_i_7_ w_i_8_ w_i_9_ w_i_10_ w_i_11_ w_i_12_ w_i_13_ w_i_14_ w_i_15_ start y1_r_0_ y1_r_1_ y1_r_2_ y1_r_3_ y1_r_4_ y1_r_5_ y1_r_6_ y1_r_7_ y1_r_8_ y1_r_9_ y1_r_10_ y1_r_11_ y1_r_12_ y1_r_13_ y1_r_14_ y1_r_15_ y1_i_0_ y1_i_1_ y1_i_2_ y1_i_3_ y1_i_4_ y1_i_5_ y1_i_6_ y1_i_7_ y1_i_8_ y1_i_9_ y1_i_10_ y1_i_11_ y1_i_12_ y1_i_13_ y1_i_14_ y1_i_15_ y2_r_0_ y2_r_1_ y2_r_2_ y2_r_3_ y2_r_4_ y2_r_5_ y2_r_6_ y2_r_7_ y2_r_8_ y2_r_9_ y2_r_10_ y2_r_11_ y2_r_12_ y2_r_13_ y2_r_14_ y2_r_15_ y2_i_0_ y2_i_1_ y2_i_2_ y2_i_3_ y2_i_4_ y2_i_5_ y2_i_6_ y2_i_7_ y2_i_8_ y2_i_9_ y2_i_10_ y2_i_11_ y2_i_12_ y2_i_13_ y2_i_14_ y2_i_15_
X0 x2_r_7_ 1 INV_X1
X1 w_i_0_ 2 INV_X1
X2 w_i_2_ 3 INV_X1
X3 w_i_7_ 4 INV_X1
X4 w_r_1_ 5 INV_X1
X5 x2_r_9_ 6 INV_X1
X6 x2_i_15_ 7 INV_X1
X7 w_i_15_ 8 INV_X1
X8 x2_i_4_ 9 INV_X1
X9 x2_i_2_ 10 INV_X1
X10 x2_r_15_ 11 INV_X1
X11 x1_i_0_ 12 INV_X1
X12 x1_i_1_ 13 INV_X1
X13 x1_i_2_ 14 INV_X1
X14 x1_i_3_ 15 INV_X1
X15 x1_i_4_ 16 INV_X1
X16 x1_i_5_ 17 INV_X1
X17 x1_i_6_ 18 INV_X1
X18 x1_i_7_ 19 INV_X1
X19 x1_i_8_ 20 INV_X1
X20 x1_i_9_ 21 INV_X1
X21 x1_i_10_ 22 INV_X1
X22 x1_i_12_ 23 INV_X1
X23 x1_i_13_ 24 INV_X1
X24 x1_i_14_ 25 INV_X1
X25 x1_r_2_ 26 INV_X1
X26 x1_r_5_ 27 INV_X1
X27 x1_r_11_ 28 INV_X1
X28 x1_r_12_ 29 INV_X1
X29 x1_r_13_ 30 INV_X1
X30 w_i_0_ w_i_3_ x2_i_0_ x2_i_3_ 31 AND4_X1
X31 w_i_0_ w_i_3_ x2_i_0_ x2_i_3_ 32 NAND4_X1
X32 w_i_2_ x2_i_1_ 33 NAND2_X1
X33 w_i_3_ x2_i_0_ x2_i_3_ w_i_0_ 34 AOI22_X1
X34 31 34 35 NOR2_X1
X35 32 33 34 36 OAI21_X1
X36 w_i_3_ x2_i_1_ 37 NAND2_X1
X37 w_i_1_ w_i_4_ x2_i_0_ x2_i_3_ 38 AND4_X1
X38 w_i_1_ w_i_4_ x2_i_0_ x2_i_3_ 39 NAND4_X1
X39 w_i_4_ x2_i_0_ x2_i_3_ w_i_1_ 40 AOI22_X1
X40 37 38 40 41 OR3_X1
X41 37 38 40 42 OAI21_X1
X42 36 41 42 43 AND3_X1
X43 36 41 42 44 NAND3_X1
X44 w_i_0_ w_i_2_ x2_i_4_ x2_i_2_ 45 AND4_X1
X45 w_i_0_ w_i_2_ x2_i_4_ x2_i_2_ 46 NAND4_X1
X46 w_i_0_ x2_i_4_ x2_i_2_ w_i_2_ 47 AOI22_X1
X47 45 47 48 NOR2_X1
X48 48 49 INV_X1
X49 36 41 42 50 AOI21_X1
X50 43 50 51 NOR2_X1
X51 44 49 50 52 OAI21_X1
X52 w_i_0_ x2_i_5_ 53 AND2_X1
X53 w_i_1_ x2_i_2_ 54 NAND2_X1
X54 w_i_1_ w_i_3_ x2_i_4_ x2_i_2_ 55 AND4_X1
X55 w_i_1_ x2_i_4_ x2_i_2_ w_i_3_ 56 AOI22_X1
X56 55 56 57 NOR2_X1
X57 53 57 58 XNOR2_X1
X58 39 40 37 59 OAI21_X1
X59 w_i_4_ x2_i_1_ 60 NAND2_X1
X60 w_i_2_ x2_i_0_ 61 AND2_X1
X61 w_i_2_ w_i_5_ x2_i_0_ x2_i_3_ 62 AND4_X1
X62 w_i_2_ w_i_5_ x2_i_0_ x2_i_3_ 63 NAND4_X1
X63 w_i_5_ x2_i_0_ x2_i_3_ w_i_2_ 64 AOI22_X1
X64 60 62 64 65 OR3_X1
X65 60 62 64 66 OAI21_X1
X66 59 65 66 67 AND3_X1
X67 59 65 66 68 NAND3_X1
X68 59 65 66 69 AOI21_X1
X69 58 67 69 70 OR3_X1
X70 58 67 69 71 OAI21_X1
X71 70 71 72 NAND2_X1
X72 52 70 71 73 NAND3_X1
X73 52 70 71 74 AOI21_X1
X74 52 72 75 XNOR2_X1
X75 73 74 46 76 OAI21_X1
X76 55 57 53 77 AOI21_X1
X77 w_i_0_ x2_i_6_ 78 NAND2_X1
X78 77 78 79 OR2_X1
X79 77 78 80 XNOR2_X1
X80 68 69 58 81 OAI21_X1
X81 w_i_1_ x2_i_5_ 82 NAND2_X1
X82 w_i_2_ w_i_4_ x2_i_4_ x2_i_2_ 83 AND4_X1
X83 w_i_2_ x2_i_4_ x2_i_2_ w_i_4_ 84 AOI22_X1
X84 83 84 85 NOR2_X1
X85 82 83 84 86 NOR3_X1
X86 82 85 87 XOR2_X1
X87 63 64 60 88 OAI21_X1
X88 w_i_5_ x2_i_1_ 89 NAND2_X1
X89 w_i_3_ w_i_6_ x2_i_0_ x2_i_3_ 90 AND4_X1
X90 w_i_3_ w_i_6_ x2_i_0_ x2_i_3_ 91 NAND4_X1
X91 w_i_6_ x2_i_0_ x2_i_3_ w_i_3_ 92 AOI22_X1
X92 89 90 92 93 OR3_X1
X93 89 90 92 94 OAI21_X1
X94 88 93 94 95 AND3_X1
X95 88 93 94 96 NAND3_X1
X96 88 93 94 97 AOI21_X1
X97 87 95 97 98 OR3_X1
X98 87 95 97 99 OAI21_X1
X99 81 98 99 100 AND3_X1
X100 81 98 99 101 NAND3_X1
X101 81 98 99 102 AOI21_X1
X102 80 100 102 103 OR3_X1
X103 80 100 102 104 OAI21_X1
X104 76 103 104 105 AND3_X1
X105 101 102 80 106 OAI21_X1
X106 w_i_1_ x2_i_7_ 107 NAND2_X1
X107 78 107 108 NOR2_X1
X108 w_i_1_ x2_i_6_ x2_i_7_ w_i_0_ 109 AOI22_X1
X109 108 109 110 NOR2_X1
X110 110 86 83 111 OAI21_X1
X111 83 86 110 112 OR3_X1
X112 111 112 113 NAND2_X1
X113 96 97 87 114 OAI21_X1
X114 w_i_2_ x2_i_5_ 115 NAND2_X1
X115 w_i_3_ w_i_5_ x2_i_4_ x2_i_2_ 116 AND4_X1
X116 w_i_3_ x2_i_4_ x2_i_2_ w_i_5_ 117 AOI22_X1
X117 116 117 118 NOR2_X1
X118 115 116 117 119 NOR3_X1
X119 115 118 120 XOR2_X1
X120 91 92 89 121 OAI21_X1
X121 w_i_6_ x2_i_1_ 122 NAND2_X1
X122 w_i_4_ w_i_7_ x2_i_0_ x2_i_3_ 123 AND4_X1
X123 w_i_4_ w_i_7_ x2_i_0_ x2_i_3_ 124 NAND4_X1
X124 w_i_7_ x2_i_0_ x2_i_3_ w_i_4_ 125 AOI22_X1
X125 122 123 125 126 OR3_X1
X126 122 123 125 127 OAI21_X1
X127 121 126 127 128 AND3_X1
X128 121 126 127 129 NAND3_X1
X129 121 126 127 130 AOI21_X1
X130 120 128 130 131 OR3_X1
X131 120 128 130 132 OAI21_X1
X132 114 131 132 133 AND3_X1
X133 114 131 132 134 NAND3_X1
X134 114 131 132 135 AOI21_X1
X135 113 133 135 136 OR3_X1
X136 113 133 135 137 OAI21_X1
X137 106 136 137 138 AND3_X1
X138 106 136 137 139 AOI21_X1
X139 79 138 139 140 NOR3_X1
X140 79 138 139 141 OR3_X1
X141 79 138 139 142 OAI21_X1
X142 105 141 142 143 AND3_X1
X143 105 141 142 144 NAND3_X1
X144 105 141 142 145 AOI21_X1
X145 143 145 146 NOR2_X1
X146 76 103 104 147 AOI21_X1
X147 45 75 148 XNOR2_X1
X148 105 147 148 149 NOR3_X1
X149 w_i_1_ x2_i_1_ 150 AND2_X1
X150 61 150 151 NAND2_X1
X151 33 35 152 XNOR2_X1
X152 61 150 152 153 NAND3_X1
X153 151 152 154 XNOR2_X1
X154 w_i_1_ x2_i_2_ 154 155 NAND3_X1
X155 48 51 156 XNOR2_X1
X156 153 155 156 157 AND3_X1
X157 156 155 153 158 AOI21_X1
X158 x2_i_0_ 150 159 NAND2_X1
X159 10 159 w_i_2_ 160 OAI21_X1
X160 54 154 161 XNOR2_X1
X161 160 161 61 150 162 OAI211_X1
X162 2 157 158 162 163 NOR4_X1
X163 149 158 164 NAND2_X1
X164 146 149 163 165 NAND3_X1
X165 138 140 166 NOR2_X1
X166 134 135 113 167 OAI21_X1
X167 129 130 120 168 OAI21_X1
X168 124 125 122 169 OAI21_X1
X169 w_i_7_ x2_i_1_ 170 NAND2_X1
X170 w_i_8_ x2_i_0_ 171 NAND2_X1
X171 w_i_5_ w_i_8_ x2_i_0_ x2_i_3_ 172 AND4_X1
X172 w_i_5_ w_i_8_ x2_i_0_ x2_i_3_ 173 NAND4_X1
X173 w_i_8_ x2_i_0_ x2_i_3_ w_i_5_ 174 AOI22_X1
X174 170 172 174 175 OR3_X1
X175 170 172 174 176 OAI21_X1
X176 169 175 176 177 AND3_X1
X177 169 175 176 178 NAND3_X1
X178 169 175 176 179 AOI21_X1
X179 w_i_3_ x2_i_5_ 180 NAND2_X1
X180 w_i_4_ w_i_6_ x2_i_4_ x2_i_2_ 181 AND4_X1
X181 w_i_4_ x2_i_4_ x2_i_2_ w_i_6_ 182 AOI22_X1
X182 181 182 183 NOR2_X1
X183 180 181 182 184 NOR3_X1
X184 180 183 185 XOR2_X1
X185 177 179 185 186 OR3_X1
X186 185 179 177 187 OAI21_X1
X187 168 186 187 188 AND3_X1
X188 168 186 187 189 NAND3_X1
X189 168 186 187 190 AOI21_X1
X190 116 119 191 NOR2_X1
X191 w_i_0_ x2_i_8_ 192 NAND2_X1
X192 w_i_2_ x2_i_6_ 193 NAND2_X1
X193 w_i_2_ x2_i_7_ 194 NAND2_X1
X194 107 193 195 XOR2_X1
X195 w_i_0_ x2_i_8_ 195 196 NAND3_X1
X196 192 195 197 XNOR2_X1
X197 197 198 INV_X1
X198 191 198 199 NOR2_X1
X199 191 197 200 XNOR2_X1
X200 108 200 201 XNOR2_X1
X201 188 190 201 202 OR3_X1
X202 201 190 188 203 OAI21_X1
X203 167 202 203 204 AND3_X1
X204 167 202 203 205 NAND3_X1
X205 167 202 203 206 AOI21_X1
X206 111 204 206 207 OR3_X1
X207 111 204 206 208 OAI21_X1
X208 207 208 209 NAND2_X1
X209 207 208 138 140 210 OAI211_X1
X210 166 209 211 XOR2_X1
X211 144 145 164 212 OAI21_X1
X212 146 149 158 211 213 NAND4_X1
X213 211 212 214 XNOR2_X1
X214 165 214 215 XOR2_X1
X215 x2_r_1_ x2_r_4_ w_r_1_ w_r_4_ 216 AND4_X1
X216 x2_r_5_ w_r_0_ 217 AND2_X1
X217 x2_r_4_ w_r_1_ w_r_4_ x2_r_1_ 218 AOI22_X1
X218 216 218 219 NOR2_X1
X219 216 217 219 220 AOI21_X1
X220 x2_r_6_ w_r_0_ 221 NAND2_X1
X221 220 221 222 OR2_X1
X222 x2_r_2_ x2_r_3_ w_r_1_ w_r_2_ 223 AND4_X1
X223 x2_r_2_ x2_r_3_ w_r_1_ w_r_2_ 224 NAND4_X1
X224 x2_r_0_ w_r_4_ 225 NAND2_X1
X225 x2_r_3_ w_r_1_ w_r_2_ x2_r_2_ 226 AOI22_X1
X226 223 226 227 NOR2_X1
X227 224 225 226 228 OAI21_X1
X228 x2_r_0_ w_r_5_ 229 NAND2_X1
X229 x2_r_2_ x2_r_3_ w_r_2_ w_r_3_ 230 AND4_X1
X230 x2_r_2_ x2_r_3_ w_r_2_ w_r_3_ 231 NAND4_X1
X231 x2_r_3_ w_r_2_ w_r_3_ x2_r_2_ 232 AOI22_X1
X232 229 230 232 233 OR3_X1
X233 229 230 232 234 OAI21_X1
X234 228 233 234 235 AND3_X1
X235 228 233 234 236 NAND3_X1
X236 217 219 237 XNOR2_X1
X237 228 233 234 238 AOI21_X1
X238 235 238 239 NOR2_X1
X239 236 237 238 240 OAI21_X1
X240 x2_r_5_ w_r_1_ 241 NAND2_X1
X241 x2_r_1_ w_r_2_ 242 NAND2_X1
X242 x2_r_1_ x2_r_4_ w_r_2_ w_r_5_ 243 AND4_X1
X243 x2_r_4_ w_r_2_ w_r_5_ x2_r_1_ 244 AOI22_X1
X244 243 244 245 NOR2_X1
X245 241 243 244 246 NOR3_X1
X246 241 245 247 XOR2_X1
X247 231 232 229 248 OAI21_X1
X248 x2_r_0_ w_r_6_ 249 NAND2_X1
X249 x2_r_2_ x2_r_3_ w_r_3_ w_r_4_ 250 AND4_X1
X250 x2_r_2_ x2_r_3_ w_r_3_ w_r_4_ 251 NAND4_X1
X251 x2_r_3_ w_r_3_ w_r_4_ x2_r_2_ 252 AOI22_X1
X252 249 250 252 253 OR3_X1
X253 249 250 252 254 OAI21_X1
X254 248 253 254 255 AND3_X1
X255 248 253 254 256 NAND3_X1
X256 248 253 254 257 AOI21_X1
X257 247 255 257 258 OR3_X1
X258 247 255 257 259 OAI21_X1
X259 240 258 259 260 AND3_X1
X260 240 258 259 261 NAND3_X1
X261 220 221 262 XNOR2_X1
X262 240 258 259 263 AOI21_X1
X263 260 263 264 NOR2_X1
X264 261 262 263 265 OAI21_X1
X265 x2_r_7_ w_r_1_ 266 NAND2_X1
X266 221 266 267 NOR2_X1
X267 x2_r_7_ w_r_0_ w_r_1_ x2_r_6_ 268 AOI22_X1
X268 267 268 269 NOR2_X1
X269 269 246 243 270 OAI21_X1
X270 243 246 269 271 OR3_X1
X271 270 271 272 NAND2_X1
X272 256 257 247 273 OAI21_X1
X273 x2_r_5_ w_r_2_ 274 NAND2_X1
X274 x2_r_1_ x2_r_4_ w_r_3_ w_r_6_ 275 AND4_X1
X275 x2_r_4_ w_r_3_ w_r_6_ x2_r_1_ 276 AOI22_X1
X276 275 276 277 NOR2_X1
X277 274 275 276 278 NOR3_X1
X278 274 277 279 XOR2_X1
X279 251 252 249 280 OAI21_X1
X280 x2_r_0_ w_r_7_ 281 NAND2_X1
X281 x2_r_2_ x2_r_3_ w_r_4_ w_r_5_ 282 AND4_X1
X282 x2_r_2_ x2_r_3_ w_r_4_ w_r_5_ 283 NAND4_X1
X283 x2_r_3_ w_r_4_ w_r_5_ x2_r_2_ 284 AOI22_X1
X284 281 282 284 285 OR3_X1
X285 281 282 284 286 OAI21_X1
X286 280 285 286 287 AND3_X1
X287 280 285 286 288 NAND3_X1
X288 280 285 286 289 AOI21_X1
X289 279 287 289 290 OR3_X1
X290 279 287 289 291 OAI21_X1
X291 273 290 291 292 AND3_X1
X292 273 290 291 293 NAND3_X1
X293 273 290 291 294 AOI21_X1
X294 272 292 294 295 OR3_X1
X295 272 292 294 296 OAI21_X1
X296 265 295 296 297 AND3_X1
X297 265 295 296 298 NAND3_X1
X298 265 295 296 299 AOI21_X1
X299 222 297 299 300 OR3_X1
X300 222 297 299 301 OAI21_X1
X301 300 301 302 NAND2_X1
X302 x2_r_2_ x2_r_3_ w_r_0_ w_r_1_ 303 AND4_X1
X303 x2_r_0_ w_r_3_ 304 AND2_X1
X304 x2_r_3_ w_r_0_ w_r_1_ x2_r_2_ 305 AOI22_X1
X305 303 305 306 NOR2_X1
X306 303 304 306 307 AOI21_X1
X307 307 308 INV_X1
X308 225 227 309 XNOR2_X1
X309 308 309 310 NAND2_X1
X310 x2_r_1_ x2_r_4_ w_r_0_ w_r_3_ 311 AND4_X1
X311 x2_r_4_ w_r_0_ w_r_3_ x2_r_1_ 312 AOI22_X1
X312 307 309 313 XOR2_X1
X313 311 312 313 314 OR3_X1
X314 310 314 315 NAND2_X1
X315 237 239 316 XOR2_X1
X316 316 314 310 317 AOI21_X1
X317 310 314 316 318 NAND3_X1
X318 315 316 319 XOR2_X1
X319 317 318 311 320 AOI21_X1
X320 262 264 321 XOR2_X1
X321 320 321 322 NOR2_X1
X322 320 321 323 XOR2_X1
X323 311 319 324 XNOR2_X1
X324 x2_r_0_ x2_r_2_ w_r_0_ w_r_2_ 325 AND4_X1
X325 304 306 326 XOR2_X1
X326 325 326 327 XNOR2_X1
X327 242 327 328 NOR2_X1
X328 328 326 325 329 AOI21_X1
X329 313 312 311 330 OAI21_X1
X330 314 330 331 NAND2_X1
X331 329 331 332 NOR2_X1
X332 329 331 333 AND2_X1
X333 w_r_0_ w_r_2_ x2_r_0_ 334 AOI21_X1
X334 x2_r_1_ w_r_1_ x2_r_2_ x2_r_0_ 335 OAI211_X1
X335 328 334 335 336 NOR3_X1
X336 332 333 242 327 337 AOI211_X1
X337 323 324 336 337 338 NAND4_X1
X338 302 338 339 NOR2_X1
X339 298 299 222 340 OAI21_X1
X340 293 294 272 341 OAI21_X1
X341 288 289 279 342 OAI21_X1
X342 283 284 281 343 OAI21_X1
X343 x2_r_0_ w_r_8_ 344 NAND2_X1
X344 x2_r_2_ x2_r_3_ w_r_5_ w_r_6_ 345 AND4_X1
X345 x2_r_2_ x2_r_3_ w_r_5_ w_r_6_ 346 NAND4_X1
X346 x2_r_3_ w_r_5_ w_r_6_ x2_r_2_ 347 AOI22_X1
X347 344 345 347 348 OR3_X1
X348 344 345 347 349 OAI21_X1
X349 343 348 349 350 AND3_X1
X350 343 348 349 351 NAND3_X1
X351 343 348 349 352 AOI21_X1
X352 x2_r_5_ w_r_3_ 353 NAND2_X1
X353 x2_r_4_ w_r_7_ 354 NAND2_X1
X354 x2_r_1_ x2_r_4_ w_r_4_ w_r_7_ 355 AND4_X1
X355 x2_r_4_ w_r_4_ w_r_7_ x2_r_1_ 356 AOI22_X1
X356 355 356 357 NOR2_X1
X357 353 355 356 358 NOR3_X1
X358 353 357 359 XOR2_X1
X359 350 352 359 360 OR3_X1
X360 359 352 350 361 OAI21_X1
X361 342 360 361 362 AND3_X1
X362 342 360 361 363 NAND3_X1
X363 342 360 361 364 AOI21_X1
X364 275 278 365 NOR2_X1
X365 x2_r_8_ w_r_0_ 366 NAND2_X1
X366 x2_r_6_ w_r_2_ 367 NAND2_X1
X367 x2_r_7_ w_r_2_ 368 NAND2_X1
X368 266 367 369 XOR2_X1
X369 x2_r_8_ w_r_0_ 369 370 NAND3_X1
X370 366 369 371 XNOR2_X1
X371 371 372 INV_X1
X372 365 372 373 NOR2_X1
X373 365 371 374 XNOR2_X1
X374 267 374 375 XNOR2_X1
X375 362 364 375 376 OR3_X1
X376 375 364 362 377 OAI21_X1
X377 341 376 377 378 AND3_X1
X378 341 376 377 379 NAND3_X1
X379 341 376 377 380 AOI21_X1
X380 270 378 380 381 OR3_X1
X381 270 378 380 382 OAI21_X1
X382 340 381 382 383 AND3_X1
X383 340 381 382 384 NAND3_X1
X384 340 381 382 385 AOI21_X1
X385 383 385 386 OR2_X1
X386 322 301 300 387 AOI21_X1
X387 323 324 332 388 NAND3_X1
X388 387 388 389 OR2_X1
X389 300 301 322 390 NAND3_X1
X390 389 390 391 AND2_X1
X391 390 388 387 383 385 392 OAI221_X1
X392 383 385 387 388 393 OR4_X1
X393 393 394 INV_X1
X394 383 385 390 395 NOR3_X1
X395 383 385 390 396 OR3_X1
X396 392 393 396 397 NAND3_X1
X397 339 392 393 396 398 AND4_X1
X398 339 392 393 396 399 NAND4_X1
X399 339 397 400 XNOR2_X1
X400 x1_r_0_ 400 401 NAND2_X1
X401 x1_r_0_ 400 402 XNOR2_X1
X402 215 402 403 AND2_X1
X403 x1_r_0_ 215 404 NAND2_X1
X404 x1_r_0_ 215 405 XNOR2_X1
X405 400 405 406 NAND2_X1
X406 406 407 INV_X1
X407 400 405 y1_r_0_ XNOR2_X1
X408 379 380 270 408 OAI21_X1
X409 363 364 375 409 OAI21_X1
X410 351 352 359 410 OAI21_X1
X411 346 347 344 411 OAI21_X1
X412 x2_r_0_ w_r_9_ 412 NAND2_X1
X413 x2_r_2_ x2_r_3_ w_r_6_ w_r_7_ 413 AND4_X1
X414 x2_r_2_ x2_r_3_ w_r_6_ w_r_7_ 414 NAND4_X1
X415 x2_r_3_ w_r_6_ w_r_7_ x2_r_2_ 415 AOI22_X1
X416 412 413 415 416 OR3_X1
X417 412 413 415 417 OAI21_X1
X418 411 416 417 418 AND3_X1
X419 411 416 417 419 NAND3_X1
X420 411 416 417 420 AOI21_X1
X421 x2_r_5_ w_r_4_ 421 AND2_X1
X422 x2_r_1_ x2_r_4_ w_r_5_ w_r_8_ 422 AND4_X1
X423 x2_r_4_ w_r_5_ w_r_8_ x2_r_1_ 423 AOI22_X1
X424 422 423 424 NOR2_X1
X425 421 424 425 XNOR2_X1
X426 418 420 425 426 OR3_X1
X427 425 420 418 427 OAI21_X1
X428 410 426 427 428 AND3_X1
X429 410 426 427 429 NAND3_X1
X430 410 426 427 430 AOI21_X1
X431 370 367 266 431 OAI21_X1
X432 355 358 432 NOR2_X1
X433 x2_r_8_ w_r_1_ 433 AND2_X1
X434 x2_r_6_ w_r_3_ 434 NAND2_X1
X435 x2_r_7_ w_r_3_ 435 NAND2_X1
X436 368 434 436 NOR2_X1
X437 368 434 437 XOR2_X1
X438 433 437 438 XOR2_X1
X439 438 439 INV_X1
X440 432 439 440 NOR2_X1
X441 432 438 441 XNOR2_X1
X442 431 441 442 XNOR2_X1
X443 428 430 442 443 OR3_X1
X444 442 430 428 444 OAI21_X1
X445 409 443 444 445 AND3_X1
X446 409 443 444 446 NAND3_X1
X447 409 443 444 447 AOI21_X1
X448 373 374 267 448 AOI21_X1
X449 w_r_0_ x2_r_9_ 449 NAND2_X1
X450 448 449 450 OR2_X1
X451 448 449 451 XNOR2_X1
X452 445 447 451 452 OR3_X1
X453 451 447 445 453 OAI21_X1
X454 408 452 453 454 AND3_X1
X455 408 452 453 455 AOI21_X1
X456 384 454 455 456 OR3_X1
X457 384 454 455 457 OAI21_X1
X458 456 457 458 NAND2_X1
X459 396 456 457 459 AND3_X1
X460 396 456 457 460 AOI21_X1
X461 395 456 457 461 AND3_X1
X462 395 456 457 462 AOI21_X1
X463 394 398 459 460 463 OAI22_X1
X464 393 399 461 462 464 OAI211_X1
X465 463 464 465 NAND2_X1
X466 x1_r_1_ 463 464 466 NAND3_X1
X467 x1_r_1_ 463 464 467 AOI21_X1
X468 x1_r_1_ 465 468 XNOR2_X1
X469 401 468 469 XNOR2_X1
X470 213 214 165 470 OAI21_X1
X471 205 206 111 471 OAI21_X1
X472 189 190 201 472 OAI21_X1
X473 178 179 185 473 OAI21_X1
X474 173 174 170 474 OAI21_X1
X475 w_i_8_ x2_i_1_ 475 NAND2_X1
X476 w_i_6_ w_i_9_ x2_i_0_ x2_i_3_ 476 AND4_X1
X477 w_i_6_ w_i_9_ x2_i_0_ x2_i_3_ 477 NAND4_X1
X478 w_i_9_ x2_i_0_ x2_i_3_ w_i_6_ 478 AOI22_X1
X479 475 476 478 479 OR3_X1
X480 475 476 478 480 OAI21_X1
X481 474 479 480 481 AND3_X1
X482 474 479 480 482 NAND3_X1
X483 474 479 480 483 AOI21_X1
X484 w_i_4_ x2_i_5_ 484 NAND2_X1
X485 w_i_7_ x2_i_4_ 485 NAND2_X1
X486 w_i_5_ w_i_7_ x2_i_4_ x2_i_2_ 486 AND4_X1
X487 w_i_5_ x2_i_4_ x2_i_2_ w_i_7_ 487 AOI22_X1
X488 486 487 488 NOR2_X1
X489 484 486 487 489 NOR3_X1
X490 484 488 490 XOR2_X1
X491 481 483 490 491 OR3_X1
X492 490 483 481 492 OAI21_X1
X493 473 491 492 493 AND3_X1
X494 473 491 492 494 NAND3_X1
X495 473 491 492 495 AOI21_X1
X496 196 193 107 496 OAI21_X1
X497 181 184 497 NOR2_X1
X498 w_i_1_ x2_i_8_ 498 AND2_X1
X499 w_i_3_ x2_i_6_ 499 NAND2_X1
X500 w_i_3_ x2_i_7_ 500 NAND2_X1
X501 194 499 501 NOR2_X1
X502 194 499 502 XOR2_X1
X503 498 502 503 XOR2_X1
X504 503 504 INV_X1
X505 497 504 505 NOR2_X1
X506 497 503 506 XNOR2_X1
X507 496 506 507 XNOR2_X1
X508 493 495 507 508 OR3_X1
X509 507 495 493 509 OAI21_X1
X510 472 508 509 510 AND3_X1
X511 472 508 509 511 NAND3_X1
X512 472 508 509 512 AOI21_X1
X513 199 200 108 513 AOI21_X1
X514 w_i_0_ x2_i_9_ 514 NAND2_X1
X515 513 514 515 OR2_X1
X516 513 514 516 XNOR2_X1
X517 510 512 516 517 OR3_X1
X518 516 512 510 518 OAI21_X1
X519 471 517 518 519 AND3_X1
X520 471 517 518 520 AOI21_X1
X521 210 519 520 521 OR3_X1
X522 210 519 520 522 OAI21_X1
X523 143 211 521 522 523 AND4_X1
X524 143 211 521 522 524 NAND4_X1
X525 143 211 521 522 525 AOI22_X1
X526 523 525 526 NOR2_X1
X527 470 526 527 XOR2_X1
X528 527 528 INV_X1
X529 469 528 529 NAND2_X1
X530 469 528 530 XNOR2_X1
X531 403 530 y1_r_1_ XOR2_X1
X532 529 530 403 531 OAI21_X1
X533 466 467 401 532 OAI21_X1
X534 386 391 458 461 462 399 533 OAI33_X1
X535 446 447 451 534 OAI21_X1
X536 429 430 442 535 OAI21_X1
X537 419 420 425 536 OAI21_X1
X538 414 415 412 537 OAI21_X1
X539 x2_r_0_ w_r_10_ 538 NAND2_X1
X540 x2_r_2_ x2_r_3_ w_r_7_ w_r_8_ 539 AND4_X1
X541 x2_r_3_ w_r_7_ w_r_8_ x2_r_2_ 540 AOI22_X1
X542 538 539 540 541 NOR3_X1
X543 538 539 540 542 OR3_X1
X544 538 539 540 543 OAI21_X1
X545 537 542 543 544 AND3_X1
X546 544 545 INV_X1
X547 537 542 543 546 AOI21_X1
X548 x2_r_5_ w_r_5_ 547 NAND2_X1
X549 x2_r_4_ w_r_9_ 548 NAND2_X1
X550 x2_r_1_ x2_r_4_ w_r_6_ w_r_9_ 549 AND4_X1
X551 x2_r_4_ w_r_6_ w_r_9_ x2_r_1_ 550 AOI22_X1
X552 549 550 551 NOR2_X1
X553 547 549 550 552 NOR3_X1
X554 547 551 553 XOR2_X1
X555 544 546 553 554 OR3_X1
X556 553 546 544 555 OAI21_X1
X557 536 554 555 556 AND3_X1
X558 536 554 555 557 AOI21_X1
X559 436 437 433 558 AOI21_X1
X560 422 424 421 559 AOI21_X1
X561 x2_r_8_ w_r_2_ 560 NAND2_X1
X562 x2_r_6_ w_r_4_ 561 NAND2_X1
X563 x2_r_7_ w_r_4_ 562 NAND2_X1
X564 435 561 563 NOR2_X1
X565 435 561 564 XOR2_X1
X566 x2_r_8_ w_r_2_ 564 565 AND3_X1
X567 560 564 566 XNOR2_X1
X568 566 567 INV_X1
X569 559 567 568 NOR2_X1
X570 559 566 569 XNOR2_X1
X571 569 570 INV_X1
X572 558 570 571 NOR2_X1
X573 558 569 572 XOR2_X1
X574 556 557 572 573 NOR3_X1
X575 556 557 572 574 OR3_X1
X576 572 557 556 575 OAI21_X1
X577 535 574 575 576 AND3_X1
X578 535 574 575 577 AOI21_X1
X579 440 441 431 578 AOI21_X1
X580 w_r_1_ x2_r_10_ 579 NAND2_X1
X581 449 579 580 NOR2_X1
X582 w_r_1_ x2_r_9_ x2_r_10_ w_r_0_ 581 AOI22_X1
X583 580 581 582 NOR2_X1
X584 578 580 581 583 NOR3_X1
X585 578 582 584 XOR2_X1
X586 576 577 584 585 NOR3_X1
X587 576 577 584 586 OR3_X1
X588 584 577 576 587 OAI21_X1
X589 534 586 587 588 AND3_X1
X590 534 586 587 589 AOI21_X1
X591 450 588 589 590 NOR3_X1
X592 450 588 589 591 OR3_X1
X593 450 588 589 592 OAI21_X1
X594 454 591 592 593 AND3_X1
X595 454 591 592 594 AOI21_X1
X596 456 593 594 595 NOR3_X1
X597 456 593 594 596 OR3_X1
X598 456 593 594 597 OAI21_X1
X599 533 596 597 598 AND3_X1
X600 533 596 597 599 AOI21_X1
X601 598 599 600 NOR2_X1
X602 26 598 599 601 NOR3_X1
X603 26 598 599 602 OAI21_X1
X604 26 600 603 XNOR2_X1
X605 532 603 604 XNOR2_X1
X606 165 214 523 525 605 NOR4_X1
X607 525 524 213 606 AOI21_X1
X608 605 606 607 NOR2_X1
X609 511 512 516 608 OAI21_X1
X610 494 495 507 609 OAI21_X1
X611 482 483 490 610 OAI21_X1
X612 477 478 475 611 OAI21_X1
X613 w_i_9_ x2_i_1_ 612 NAND2_X1
X614 w_i_7_ w_i_10_ x2_i_0_ x2_i_3_ 613 AND4_X1
X615 w_i_10_ x2_i_0_ x2_i_3_ w_i_7_ 614 AOI22_X1
X616 612 613 614 615 NOR3_X1
X617 612 613 614 616 OR3_X1
X618 612 613 614 617 OAI21_X1
X619 611 616 617 618 AND3_X1
X620 618 619 INV_X1
X621 611 616 617 620 AOI21_X1
X622 w_i_5_ x2_i_5_ 621 NAND2_X1
X623 w_i_8_ x2_i_4_ 622 NAND2_X1
X624 w_i_6_ w_i_8_ x2_i_4_ x2_i_2_ 623 AND4_X1
X625 w_i_6_ x2_i_4_ x2_i_2_ w_i_8_ 624 AOI22_X1
X626 623 624 625 NOR2_X1
X627 621 623 624 626 NOR3_X1
X628 621 625 627 XOR2_X1
X629 618 620 627 628 OR3_X1
X630 627 620 618 629 OAI21_X1
X631 610 628 629 630 AND3_X1
X632 610 628 629 631 AOI21_X1
X633 501 502 498 632 AOI21_X1
X634 486 489 633 NOR2_X1
X635 w_i_2_ x2_i_8_ 634 NAND2_X1
X636 w_i_4_ x2_i_6_ 635 NAND2_X1
X637 w_i_4_ x2_i_7_ 636 NAND2_X1
X638 500 635 637 NOR2_X1
X639 500 635 638 XOR2_X1
X640 w_i_2_ x2_i_8_ 638 639 AND3_X1
X641 634 638 640 XNOR2_X1
X642 640 641 INV_X1
X643 633 641 642 NOR2_X1
X644 633 640 643 XNOR2_X1
X645 643 644 INV_X1
X646 632 644 645 NOR2_X1
X647 632 643 646 XOR2_X1
X648 630 631 646 647 NOR3_X1
X649 630 631 646 648 OR3_X1
X650 646 631 630 649 OAI21_X1
X651 609 648 649 650 AND3_X1
X652 609 648 649 651 AOI21_X1
X653 505 506 496 652 AOI21_X1
X654 w_i_1_ x2_i_10_ 653 NAND2_X1
X655 514 653 654 NOR2_X1
X656 w_i_1_ x2_i_9_ x2_i_10_ w_i_0_ 655 AOI22_X1
X657 654 655 656 NOR2_X1
X658 652 654 655 657 NOR3_X1
X659 652 656 658 XOR2_X1
X660 650 651 658 659 NOR3_X1
X661 650 651 658 660 OR3_X1
X662 658 651 650 661 OAI21_X1
X663 608 660 661 662 AND3_X1
X664 608 660 661 663 NAND3_X1
X665 608 660 661 664 AOI21_X1
X666 515 662 664 665 OR3_X1
X667 515 662 664 666 OAI21_X1
X668 519 665 666 667 AND3_X1
X669 519 665 666 668 AOI21_X1
X670 521 667 668 669 OR3_X1
X671 521 667 668 670 OAI21_X1
X672 669 670 671 NAND2_X1
X673 669 670 605 606 672 OAI211_X1
X674 607 671 673 XOR2_X1
X675 604 673 674 NOR2_X1
X676 604 673 675 XOR2_X1
X677 531 675 y1_r_2_ XOR2_X1
X678 674 675 531 676 AOI21_X1
X679 663 665 677 NAND2_X1
X680 650 659 678 NOR2_X1
X681 630 647 679 NOR2_X1
X682 619 628 680 AND2_X1
X683 613 615 681 NOR2_X1
X684 w_i_10_ x2_i_1_ 682 NAND2_X1
X685 w_i_11_ x2_i_3_ 683 NAND2_X1
X686 w_i_8_ w_i_11_ x2_i_0_ x2_i_3_ 684 AND4_X1
X687 w_i_11_ x2_i_0_ x2_i_3_ w_i_8_ 685 AOI22_X1
X688 684 685 686 NOR2_X1
X689 682 686 687 XNOR2_X1
X690 687 615 613 688 OAI21_X1
X691 688 689 INV_X1
X692 681 687 690 XNOR2_X1
X693 w_i_6_ x2_i_5_ 691 AND2_X1
X694 w_i_9_ x2_i_2_ 692 NAND2_X1
X695 485 692 693 NOR2_X1
X696 485 692 694 XOR2_X1
X697 691 694 695 XOR2_X1
X698 690 695 696 AND2_X1
X699 690 695 697 NAND2_X1
X700 690 695 698 XNOR2_X1
X701 680 698 699 OR2_X1
X702 680 698 700 AND2_X1
X703 680 698 701 XOR2_X1
X704 623 626 702 NOR2_X1
X705 w_i_3_ x2_i_8_ 703 AND2_X1
X706 w_i_5_ x2_i_6_ 704 NAND2_X1
X707 w_i_5_ x2_i_7_ 705 NAND2_X1
X708 636 704 706 NOR2_X1
X709 636 704 707 XOR2_X1
X710 703 707 708 XOR2_X1
X711 708 626 623 709 OAI21_X1
X712 702 708 710 XNOR2_X1
X713 710 639 637 711 OAI21_X1
X714 637 639 710 712 OR3_X1
X715 711 712 713 NAND2_X1
X716 701 713 714 XOR2_X1
X717 679 714 715 NOR2_X1
X718 679 714 716 XOR2_X1
X719 642 645 717 NOR2_X1
X720 w_i_2_ x2_i_9_ 718 NAND2_X1
X721 w_i_2_ x2_i_10_ 719 NAND2_X1
X722 653 718 720 NOR2_X1
X723 653 718 721 XOR2_X1
X724 w_i_0_ x2_i_11_ 721 722 AND3_X1
X725 721 x2_i_11_ w_i_0_ 723 AOI21_X1
X726 722 723 724 NOR2_X1
X727 654 724 725 AND2_X1
X728 654 724 726 XOR2_X1
X729 726 727 INV_X1
X730 717 727 728 NOR2_X1
X731 717 726 729 XNOR2_X1
X732 716 729 730 XNOR2_X1
X733 678 730 731 NOR2_X1
X734 678 730 732 XOR2_X1
X735 657 732 733 XNOR2_X1
X736 733 734 INV_X1
X737 677 734 735 NAND2_X1
X738 677 733 736 XNOR2_X1
X739 667 736 737 AND2_X1
X740 667 736 738 XNOR2_X1
X741 738 672 669 739 AOI21_X1
X742 669 672 738 740 AND3_X1
X743 739 740 741 NOR2_X1
X744 601 602 532 742 AOI21_X1
X745 595 597 533 743 AOI21_X1
X746 588 590 744 NOR2_X1
X747 576 585 745 NOR2_X1
X748 556 573 746 NOR2_X1
X749 545 554 747 AND2_X1
X750 539 541 748 NOR2_X1
X751 x2_r_0_ w_r_11_ 749 NAND2_X1
X752 x2_r_2_ x2_r_3_ w_r_8_ w_r_9_ 750 AND4_X1
X753 x2_r_3_ w_r_8_ w_r_9_ x2_r_2_ 751 AOI22_X1
X754 750 751 752 NOR2_X1
X755 749 750 751 753 NOR3_X1
X756 749 752 754 XNOR2_X1
X757 754 541 539 755 OAI21_X1
X758 539 541 754 756 NOR3_X1
X759 748 754 757 XNOR2_X1
X760 x2_r_5_ w_r_6_ 758 AND2_X1
X761 x2_r_1_ w_r_10_ 759 NAND2_X1
X762 x2_r_4_ w_r_10_ 760 NAND2_X1
X763 354 759 761 NOR2_X1
X764 354 759 762 XOR2_X1
X765 758 762 763 XOR2_X1
X766 763 764 INV_X1
X767 757 763 765 XNOR2_X1
X768 747 765 766 OR2_X1
X769 766 767 INV_X1
X770 747 765 768 XOR2_X1
X771 549 552 769 NOR2_X1
X772 x2_r_8_ w_r_3_ 770 AND2_X1
X773 x2_r_6_ w_r_5_ 771 NAND2_X1
X774 x2_r_7_ w_r_5_ 772 NAND2_X1
X775 562 771 773 NOR2_X1
X776 562 771 774 XOR2_X1
X777 770 774 775 XOR2_X1
X778 775 552 549 776 OAI21_X1
X779 769 775 777 XNOR2_X1
X780 777 565 563 778 OAI21_X1
X781 563 565 777 779 OR3_X1
X782 778 779 780 AND2_X1
X783 768 780 781 AND2_X1
X784 768 780 782 NAND2_X1
X785 768 780 783 XNOR2_X1
X786 746 783 784 NOR2_X1
X787 746 783 785 XOR2_X1
X788 568 571 786 NOR2_X1
X789 w_r_2_ x2_r_9_ 787 NAND2_X1
X790 w_r_2_ x2_r_10_ 788 NAND2_X1
X791 579 787 789 NOR2_X1
X792 579 787 790 XOR2_X1
X793 w_r_0_ x2_r_11_ 790 791 AND3_X1
X794 790 x2_r_11_ w_r_0_ 792 AOI21_X1
X795 791 792 793 NOR2_X1
X796 580 793 794 NAND2_X1
X797 580 793 795 XOR2_X1
X798 795 796 INV_X1
X799 786 796 797 NOR2_X1
X800 786 795 798 XNOR2_X1
X801 785 798 799 XNOR2_X1
X802 745 799 800 OR2_X1
X803 745 799 801 XOR2_X1
X804 583 801 802 NAND2_X1
X805 583 801 803 XNOR2_X1
X806 744 803 804 OR2_X1
X807 804 805 INV_X1
X808 744 803 806 XOR2_X1
X809 593 806 807 NAND2_X1
X810 593 806 808 XNOR2_X1
X811 743 808 809 XOR2_X1
X812 809 810 INV_X1
X813 x1_r_3_ 809 811 NOR2_X1
X814 x1_r_3_ 809 812 XNOR2_X1
X815 742 812 813 XNOR2_X1
X816 741 813 814 OR2_X1
X817 741 813 815 NAND2_X1
X818 815 816 INV_X1
X819 814 815 817 NAND2_X1
X820 676 817 y1_r_3_ XOR2_X1
X821 807 808 743 818 OAI21_X1
X822 800 802 819 NAND2_X1
X823 784 785 798 820 AOI21_X1
X824 755 756 764 821 OAI21_X1
X825 750 753 822 OR2_X1
X826 x2_r_0_ w_r_12_ 823 NAND2_X1
X827 x2_r_3_ w_r_10_ 824 NAND2_X1
X828 x2_r_2_ x2_r_3_ w_r_9_ w_r_10_ 825 AND4_X1
X829 x2_r_3_ w_r_9_ w_r_10_ x2_r_2_ 826 AOI22_X1
X830 825 826 827 NOR2_X1
X831 823 825 826 828 NOR3_X1
X832 823 827 829 XNOR2_X1
X833 822 829 830 AND2_X1
X834 822 829 831 XOR2_X1
X835 x2_r_5_ w_r_7_ 832 AND2_X1
X836 x2_r_4_ w_r_11_ 833 AND2_X1
X837 x2_r_4_ w_r_11_ 834 NAND2_X1
X838 x2_r_1_ w_r_8_ 833 835 AND3_X1
X839 x2_r_4_ w_r_8_ w_r_11_ x2_r_1_ 836 AOI22_X1
X840 836 837 INV_X1
X841 835 836 838 NOR2_X1
X842 832 838 839 XOR2_X1
X843 831 839 840 AND2_X1
X844 831 839 841 XOR2_X1
X845 821 841 842 XNOR2_X1
X846 773 774 770 843 AOI21_X1
X847 843 844 INV_X1
X848 761 762 758 845 AOI21_X1
X849 x2_r_8_ w_r_4_ 846 AND2_X1
X850 x2_r_6_ w_r_6_ 847 NAND2_X1
X851 x2_r_7_ w_r_6_ 848 NAND2_X1
X852 772 847 849 NOR2_X1
X853 772 847 850 XOR2_X1
X854 846 850 851 XOR2_X1
X855 851 852 INV_X1
X856 845 852 853 NOR2_X1
X857 845 851 854 XNOR2_X1
X858 844 854 855 XNOR2_X1
X859 842 855 856 NOR2_X1
X860 842 855 857 OR2_X1
X861 842 855 858 AND2_X1
X862 842 855 859 NAND2_X1
X863 857 859 767 781 860 OAI211_X1
X864 860 861 INV_X1
X865 766 782 856 858 862 OAI211_X1
X866 776 778 863 AND2_X1
X867 863 864 INV_X1
X868 w_r_0_ x2_r_12_ 865 NAND2_X1
X869 w_r_1_ x2_r_11_ 866 AND2_X1
X870 w_r_3_ x2_r_9_ 867 NAND2_X1
X871 w_r_3_ x2_r_10_ 868 NAND2_X1
X872 788 867 869 NOR2_X1
X873 788 867 870 XOR2_X1
X874 866 870 871 XOR2_X1
X875 871 791 789 872 OAI21_X1
X876 789 791 871 873 OR3_X1
X877 872 873 874 AND2_X1
X878 w_r_0_ x2_r_12_ 874 875 NAND3_X1
X879 865 874 876 XNOR2_X1
X880 864 876 877 NAND2_X1
X881 863 876 878 XOR2_X1
X882 794 878 879 XOR2_X1
X883 860 862 879 880 AND3_X1
X884 879 862 860 881 AOI21_X1
X885 880 881 882 NOR2_X1
X886 820 880 881 883 NOR3_X1
X887 820 882 884 XNOR2_X1
X888 797 884 885 XNOR2_X1
X889 885 802 800 886 AOI21_X1
X890 819 885 887 XNOR2_X1
X891 805 887 888 AND2_X1
X892 804 887 889 XNOR2_X1
X893 818 889 890 XOR2_X1
X894 890 891 INV_X1
X895 x1_r_4_ 890 892 NAND2_X1
X896 x1_r_4_ 890 893 XNOR2_X1
X897 601 602 532 809 x1_r_3_ 894 AOI221_X1
X898 811 894 895 OR2_X1
X899 893 895 896 XNOR2_X1
X900 731 732 657 897 AOI21_X1
X901 715 716 729 898 AOI21_X1
X902 699 700 713 899 OAI21_X1
X903 171 683 685 682 900 OAI22_X1
X904 w_i_11_ x2_i_1_ 901 NAND2_X1
X905 w_i_12_ x2_i_3_ 902 NAND2_X1
X906 w_i_12_ w_i_9_ x2_i_0_ x2_i_3_ 903 AND4_X1
X907 w_i_12_ x2_i_0_ x2_i_3_ w_i_9_ 904 AOI22_X1
X908 903 904 905 NOR2_X1
X909 901 903 904 906 NOR3_X1
X910 901 905 907 XNOR2_X1
X911 900 907 908 AND2_X1
X912 900 907 909 XOR2_X1
X913 w_i_7_ x2_i_5_ 910 AND2_X1
X914 w_i_10_ x2_i_2_ 911 NAND2_X1
X915 x2_i_4_ w_i_10_ 912 NAND2_X1
X916 622 911 913 NOR2_X1
X917 622 911 914 XOR2_X1
X918 910 914 915 XOR2_X1
X919 909 915 916 XOR2_X1
X920 909 915 917 XNOR2_X1
X921 917 697 688 918 AOI21_X1
X922 916 696 689 919 OAI21_X1
X923 689 696 916 920 NOR3_X1
X924 688 697 917 921 NAND3_X1
X925 706 707 703 922 AOI21_X1
X926 922 923 INV_X1
X927 693 694 691 924 AOI21_X1
X928 w_i_4_ x2_i_8_ 925 NAND2_X1
X929 w_i_6_ x2_i_6_ 926 NAND2_X1
X930 w_i_6_ x2_i_7_ 927 NAND2_X1
X931 705 926 928 XOR2_X1
X932 w_i_4_ x2_i_8_ 928 929 NAND3_X1
X933 925 928 930 XNOR2_X1
X934 930 931 INV_X1
X935 924 931 932 NOR2_X1
X936 924 930 933 XNOR2_X1
X937 922 933 934 XNOR2_X1
X938 923 933 935 XNOR2_X1
X939 918 920 935 936 NOR3_X1
X940 919 921 934 937 NAND3_X1
X941 934 921 919 938 AOI21_X1
X942 935 920 918 939 OAI21_X1
X943 936 938 940 NOR2_X1
X944 899 937 939 941 NAND3_X1
X945 699 700 713 936 938 942 OAI221_X1
X946 709 711 943 AND2_X1
X947 w_i_0_ x2_i_12_ 944 NAND2_X1
X948 w_i_1_ x2_i_11_ 945 NAND2_X1
X949 w_i_3_ x2_i_9_ 946 NAND2_X1
X950 w_i_3_ x2_i_10_ 947 NAND2_X1
X951 719 946 948 NOR2_X1
X952 719 946 949 XOR2_X1
X953 w_i_1_ x2_i_11_ 949 950 AND3_X1
X954 945 949 951 XNOR2_X1
X955 951 722 720 952 OAI21_X1
X956 720 722 951 953 OR3_X1
X957 952 953 954 AND2_X1
X958 w_i_0_ x2_i_12_ 954 955 NAND3_X1
X959 944 954 956 XNOR2_X1
X960 956 957 INV_X1
X961 943 956 958 XNOR2_X1
X962 725 958 959 NAND2_X1
X963 725 958 960 XOR2_X1