* SPICE netlist generated by Yosys 0.9 (git sha1 1979e0b)

.SUBCKT butterfly x1_r_0_ x1_r_1_ x1_r_2_ x1_r_3_ x1_r_4_ x1_r_5_ x1_r_6_ x1_r_7_ x1_r_8_ x1_r_9_ x1_r_10_ x1_r_11_ x1_r_12_ x1_r_13_ x1_r_14_ x1_r_15_ x1_i_0_ x1_i_1_ x1_i_2_ x1_i_3_ x1_i_4_ x1_i_5_ x1_i_6_ x1_i_7_ x1_i_8_ x1_i_9_ x1_i_10_ x1_i_11_ x1_i_12_ x1_i_13_ x1_i_14_ x1_i_15_ x2_r_0_ x2_r_1_ x2_r_2_ x2_r_3_ x2_r_4_ x2_r_5_ x2_r_6_ x2_r_7_ x2_r_8_ x2_r_9_ x2_r_10_ x2_r_11_ x2_r_12_ x2_r_13_ x2_r_14_ x2_r_15_ x2_i_0_ x2_i_1_ x2_i_2_ x2_i_3_ x2_i_4_ x2_i_5_ x2_i_6_ x2_i_7_ x2_i_8_ x2_i_9_ x2_i_10_ x2_i_11_ x2_i_12_ x2_i_13_ x2_i_14_ x2_i_15_ w_r_0_ w_r_1_ w_r_2_ w_r_3_ w_r_4_ w_r_5_ w_r_6_ w_r_7_ w_r_8_ w_r_9_ w_r_10_ w_r_11_ w_r_12_ w_r_13_ w_r_14_ w_r_15_ w_i_0_ w_i_1_ w_i_2_ w_i_3_ w_i_4_ w_i_5_ w_i_6_ w_i_7_ w_i_8_ w_i_9_ w_i_10_ w_i_11_ w_i_12_ w_i_13_ w_i_14_ w_i_15_ clk start y1_r_0_ y1_r_1_ y1_r_2_ y1_r_3_ y1_r_4_ y1_r_5_ y1_r_6_ y1_r_7_ y1_r_8_ y1_r_9_ y1_r_10_ y1_r_11_ y1_r_12_ y1_r_13_ y1_r_14_ y1_r_15_ y1_i_0_ y1_i_1_ y1_i_2_ y1_i_3_ y1_i_4_ y1_i_5_ y1_i_6_ y1_i_7_ y1_i_8_ y1_i_9_ y1_i_10_ y1_i_11_ y1_i_12_ y1_i_13_ y1_i_14_ y1_i_15_ y2_r_0_ y2_r_1_ y2_r_2_ y2_r_3_ y2_r_4_ y2_r_5_ y2_r_6_ y2_r_7_ y2_r_8_ y2_r_9_ y2_r_10_ y2_r_11_ y2_r_12_ y2_r_13_ y2_r_14_ y2_r_15_ y2_i_0_ y2_i_1_ y2_i_2_ y2_i_3_ y2_i_4_ y2_i_5_ y2_i_6_ y2_i_7_ y2_i_8_ y2_i_9_ y2_i_10_ y2_i_11_ y2_i_12_ y2_i_13_ y2_i_14_ y2_i_15_
X0 start 1 INV_X1
X1 w_i_7_ 2 INV_X1
X2 w_r_1_ 3 INV_X1
X3 x2_r_1_ 4 INV_X1
X4 x2_r_7_ 5 INV_X1
X5 x1_i_2_ 6 INV_X1
X6 x1_i_3_ 7 INV_X1
X7 x1_i_4_ 8 INV_X1
X8 x1_i_5_ 9 INV_X1
X9 x1_i_6_ 10 INV_X1
X10 x1_i_7_ 11 INV_X1
X11 x1_i_8_ 12 INV_X1
X12 x1_i_9_ 13 INV_X1
X13 x1_i_10_ 14 INV_X1
X14 x1_i_11_ 15 INV_X1
X15 x1_i_12_ 16 INV_X1
X16 x1_i_13_ 17 INV_X1
X17 x1_i_14_ 18 INV_X1
X18 x2_r_15_ 19 INV_X1
X19 w_i_15_ 20 INV_X1
X20 x2_i_3_ 21 INV_X1
X21 x2_i_15_ 22 INV_X1
X22 x1_r_1_ 23 INV_X1
X23 x1_r_3_ 24 INV_X1
X24 x1_r_5_ 25 INV_X1
X25 x1_i_0_ 26 INV_X1
X26 x1_i_1_ 27 INV_X1
X27 w_r_0_ w_r_2_ x2_i_0_ x2_i_2_ 28 AND4_X1
X28 w_r_3_ x2_i_0_ 29 NAND2_X1
X29 w_r_0_ w_r_1_ x2_i_2_ x2_i_3_ 30 AND4_X1
X30 w_r_1_ x2_i_2_ x2_i_3_ w_r_0_ 31 AOI22_X1
X31 30 31 32 NOR2_X1
X32 29 30 31 33 NOR3_X1
X33 29 32 34 XNOR2_X1
X34 28 34 35 XOR2_X1
X35 w_r_2_ x2_i_1_ 35 36 AND3_X1
X36 36 34 28 37 AOI21_X1
X37 w_r_3_ x2_i_1_ 38 NAND2_X1
X38 w_r_0_ x2_i_4_ 39 NAND2_X1
X39 38 39 40 OR2_X1
X40 40 41 INV_X1
X41 38 39 42 XOR2_X1
X42 42 43 INV_X1
X43 30 33 44 OR2_X1
X44 w_r_4_ x2_i_0_ 45 NAND2_X1
X45 w_r_1_ w_r_2_ x2_i_2_ x2_i_3_ 46 AND4_X1
X46 w_r_1_ w_r_2_ x2_i_2_ x2_i_3_ 47 NAND4_X1
X47 w_r_2_ x2_i_2_ x2_i_3_ w_r_1_ 48 AOI22_X1
X48 45 46 48 49 OR3_X1
X49 45 46 48 50 OAI21_X1
X50 44 49 50 51 AND3_X1
X51 44 49 50 52 NAND3_X1
X52 44 49 50 53 AOI21_X1
X53 51 53 54 NOR2_X1
X54 42 54 55 XNOR2_X1
X55 37 55 56 OR2_X1
X56 56 57 INV_X1
X57 w_r_1_ w_r_4_ x2_i_4_ x2_i_1_ 58 AND4_X1
X58 w_r_0_ x2_i_5_ 59 AND2_X1
X59 w_r_1_ x2_i_4_ x2_i_1_ w_r_4_ 60 AOI22_X1
X60 58 60 61 NOR2_X1
X61 58 59 61 62 AOI21_X1
X62 w_r_0_ x2_i_6_ 63 NAND2_X1
X63 62 63 64 OR2_X1
X64 62 63 65 XNOR2_X1
X65 47 48 45 66 OAI21_X1
X66 w_r_5_ x2_i_0_ 67 NAND2_X1
X67 w_r_2_ w_r_3_ x2_i_2_ x2_i_3_ 68 AND4_X1
X68 w_r_2_ w_r_3_ x2_i_2_ x2_i_3_ 69 NAND4_X1
X69 w_r_3_ x2_i_2_ x2_i_3_ w_r_2_ 70 AOI22_X1
X70 67 68 70 71 OR3_X1
X71 67 68 70 72 OAI21_X1
X72 66 71 72 73 AND3_X1
X73 66 71 72 74 NAND3_X1
X74 59 61 75 XNOR2_X1
X75 66 71 72 76 AOI21_X1
X76 73 75 76 77 OR3_X1
X77 74 75 76 78 OAI21_X1
X78 w_r_1_ x2_i_5_ 79 NAND2_X1
X79 w_r_5_ x2_i_4_ 80 NAND2_X1
X80 w_r_2_ w_r_5_ x2_i_4_ x2_i_1_ 81 AND4_X1
X81 w_r_2_ x2_i_4_ x2_i_1_ w_r_5_ 82 AOI22_X1
X82 81 82 83 NOR2_X1
X83 79 81 82 84 NOR3_X1
X84 79 83 85 XOR2_X1
X85 69 70 67 86 OAI21_X1
X86 w_r_6_ x2_i_0_ 87 NAND2_X1
X87 w_r_3_ w_r_4_ x2_i_2_ x2_i_3_ 88 AND4_X1
X88 w_r_3_ w_r_4_ x2_i_2_ x2_i_3_ 89 NAND4_X1
X89 w_r_4_ x2_i_2_ x2_i_3_ w_r_3_ 90 AOI22_X1
X90 87 88 90 91 OR3_X1
X91 87 88 90 92 OAI21_X1
X92 86 91 92 93 AND3_X1
X93 86 91 92 94 NAND3_X1
X94 86 91 92 95 AOI21_X1
X95 85 93 95 96 OR3_X1
X96 85 93 95 97 OAI21_X1
X97 78 96 97 98 AND3_X1
X98 78 96 97 99 NAND3_X1
X99 78 96 97 100 AOI21_X1
X100 98 100 101 NOR2_X1
X101 65 101 102 XOR2_X1
X102 52 53 43 103 OAI21_X1
X103 75 76 73 104 OAI21_X1
X104 77 104 105 NAND2_X1
X105 77 103 104 106 NAND3_X1
X106 103 105 107 XNOR2_X1
X107 41 107 108 NAND2_X1
X108 102 106 108 109 AOI21_X1
X109 99 100 65 110 OAI21_X1
X110 81 84 111 NOR2_X1
X111 w_r_1_ x2_i_7_ 112 NAND2_X1
X112 63 112 113 OR2_X1
X113 113 114 INV_X1
X114 w_r_1_ x2_i_6_ x2_i_7_ w_r_0_ 115 AOI22_X1
X115 114 115 116 NOR2_X1
X116 116 84 81 117 OAI21_X1
X117 111 116 118 XOR2_X1
X118 94 95 85 119 OAI21_X1
X119 w_r_2_ x2_i_5_ 120 NAND2_X1
X120 w_r_6_ x2_i_4_ 121 NAND2_X1
X121 w_r_3_ w_r_6_ x2_i_4_ x2_i_1_ 122 AND4_X1
X122 w_r_3_ x2_i_4_ x2_i_1_ w_r_6_ 123 AOI22_X1
X123 122 123 124 NOR2_X1
X124 120 122 123 125 NOR3_X1
X125 120 124 126 XOR2_X1
X126 89 90 87 127 OAI21_X1
X127 w_r_7_ x2_i_0_ 128 NAND2_X1
X128 w_r_4_ w_r_5_ x2_i_2_ x2_i_3_ 129 AND4_X1
X129 w_r_4_ w_r_5_ x2_i_2_ x2_i_3_ 130 NAND4_X1
X130 w_r_5_ x2_i_2_ x2_i_3_ w_r_4_ 131 AOI22_X1
X131 128 129 131 132 OR3_X1
X132 128 129 131 133 OAI21_X1
X133 127 132 133 134 AND3_X1
X134 127 132 133 135 NAND3_X1
X135 127 132 133 136 AOI21_X1
X136 126 134 136 137 OR3_X1
X137 126 134 136 138 OAI21_X1
X138 119 137 138 139 AND3_X1
X139 119 137 138 140 NAND3_X1
X140 119 137 138 141 AOI21_X1
X141 118 139 141 142 OR3_X1
X142 118 139 141 143 OAI21_X1
X143 110 142 143 144 AND3_X1
X144 110 142 143 145 NAND3_X1
X145 110 142 143 146 AOI21_X1
X146 64 144 146 147 OR3_X1
X147 64 144 146 148 OAI21_X1
X148 109 147 148 149 AOI21_X1
X149 41 107 150 XNOR2_X1
X150 102 106 151 AND2_X1
X151 109 147 148 152 NAND3_X1
X152 109 149 150 151 153 NOR4_X1
X153 145 146 64 154 OAI21_X1
X154 140 141 118 155 OAI21_X1
X155 122 125 156 NOR2_X1
X156 w_r_0_ x2_i_8_ 157 AND2_X1
X157 w_r_2_ x2_i_6_ 158 NAND2_X1
X158 w_r_2_ x2_i_7_ 159 NAND2_X1
X159 112 158 160 NOR2_X1
X160 112 158 161 XOR2_X1
X161 157 161 162 XOR2_X1
X162 162 163 INV_X1
X163 156 163 164 NOR2_X1
X164 156 162 165 XNOR2_X1
X165 114 165 166 XNOR2_X1
X166 135 136 126 167 OAI21_X1
X167 w_r_3_ x2_i_5_ 168 NAND2_X1
X168 w_r_7_ x2_i_4_ 169 NAND2_X1
X169 w_r_4_ w_r_7_ x2_i_4_ x2_i_1_ 170 AND4_X1
X170 w_r_4_ x2_i_4_ x2_i_1_ w_r_7_ 171 AOI22_X1
X171 170 171 172 NOR2_X1
X172 168 170 171 173 NOR3_X1
X173 168 172 174 XOR2_X1
X174 130 131 128 175 OAI21_X1
X175 w_r_8_ x2_i_0_ 176 NAND2_X1
X176 w_r_5_ w_r_6_ x2_i_2_ x2_i_3_ 177 AND4_X1
X177 w_r_5_ w_r_6_ x2_i_2_ x2_i_3_ 178 NAND4_X1
X178 w_r_6_ x2_i_2_ x2_i_3_ w_r_5_ 179 AOI22_X1
X179 176 177 179 180 OR3_X1
X180 176 177 179 181 OAI21_X1
X181 175 180 181 182 AND3_X1
X182 175 180 181 183 NAND3_X1
X183 175 180 181 184 AOI21_X1
X184 174 182 184 185 OR3_X1
X185 174 182 184 186 OAI21_X1
X186 167 185 186 187 AND3_X1
X187 167 185 186 188 NAND3_X1
X188 167 185 186 189 AOI21_X1
X189 166 187 189 190 OR3_X1
X190 166 187 189 191 OAI21_X1
X191 155 190 191 192 AND3_X1
X192 192 193 INV_X1
X193 155 190 191 194 AOI21_X1
X194 117 192 194 195 OR3_X1
X195 117 192 194 196 OAI21_X1
X196 154 195 196 197 AND3_X1
X197 154 195 196 198 AOI21_X1
X198 152 197 198 199 NOR3_X1
X199 152 197 198 200 OR3_X1
X200 152 197 198 201 OAI21_X1
X201 57 153 200 201 202 AND4_X1
X202 57 153 200 201 203 NAND4_X1
X203 57 153 200 201 204 AOI22_X1
X204 x2_i_0_ x2_i_2_ w_r_0_ 205 AOI21_X1
X205 w_r_1_ x2_i_1_ w_r_2_ w_r_0_ 206 OAI211_X1
X206 35 x2_i_1_ w_r_2_ 207 AOI21_X1
X207 36 205 206 207 208 NOR4_X1
X208 37 55 209 XOR2_X1
X209 153 208 209 210 NAND3_X1
X210 210 204 202 211 OAI21_X1
X211 202 204 210 212 NOR3_X1
X212 202 204 210 213 OR3_X1
X213 211 213 214 NAND2_X1
X214 26 214 215 NOR2_X1
X215 26 214 216 XNOR2_X1
X216 216 217 INV_X1
X217 w_i_2_ x2_r_2_ 218 AND2_X1
X218 w_i_0_ x2_r_0_ 218 219 NAND3_X1
X219 w_i_0_ x2_r_3_ 220 NAND2_X1
X220 w_i_2_ w_i_3_ x2_r_0_ x2_r_1_ 221 AND4_X1
X221 w_i_2_ w_i_3_ x2_r_0_ x2_r_1_ 222 NAND4_X1
X222 w_i_3_ x2_r_0_ x2_r_1_ w_i_2_ 223 AOI22_X1
X223 221 223 224 NOR2_X1
X224 220 224 225 XNOR2_X1
X225 w_i_0_ x2_r_0_ 218 225 226 NAND4_X1
X226 219 225 227 XNOR2_X1
X227 w_i_1_ x2_r_2_ 227 228 NAND3_X1
X228 w_i_1_ w_i_4_ x2_r_0_ x2_r_3_ 229 AND4_X1
X229 w_i_4_ x2_r_0_ x2_r_3_ w_i_1_ 230 AOI22_X1
X230 229 230 231 NOR2_X1
X231 222 223 220 232 OAI21_X1
X232 w_i_0_ x2_r_4_ 233 NAND2_X1
X233 w_i_2_ w_i_3_ x2_r_1_ x2_r_2_ 234 AND4_X1
X234 w_i_2_ w_i_3_ x2_r_1_ x2_r_2_ 235 NAND4_X1
X235 w_i_3_ x2_r_1_ x2_r_2_ w_i_2_ 236 AOI22_X1
X236 233 234 236 237 OR3_X1
X237 233 234 236 238 OAI21_X1
X238 232 237 238 239 AND3_X1
X239 232 237 238 240 AOI21_X1
X240 239 240 241 NOR2_X1
X241 231 241 242 XNOR2_X1
X242 242 228 226 243 AOI21_X1
X243 w_i_1_ w_i_4_ x2_r_1_ x2_r_4_ 244 AND4_X1
X244 w_i_5_ x2_r_0_ 245 AND2_X1
X245 w_i_4_ x2_r_1_ x2_r_4_ w_i_1_ 246 AOI22_X1
X246 244 246 247 NOR2_X1
X247 244 245 247 248 AOI21_X1
X248 w_i_6_ x2_r_0_ 249 NAND2_X1
X249 248 249 250 OR2_X1
X250 235 236 233 251 OAI21_X1
X251 w_i_0_ x2_r_5_ 252 NAND2_X1
X252 w_i_2_ w_i_3_ x2_r_2_ x2_r_3_ 253 AND4_X1
X253 w_i_2_ w_i_3_ x2_r_2_ x2_r_3_ 254 NAND4_X1
X254 w_i_3_ x2_r_2_ x2_r_3_ w_i_2_ 255 AOI22_X1
X255 252 253 255 256 OR3_X1
X256 252 253 255 257 OAI21_X1
X257 251 256 257 258 AND3_X1
X258 251 256 257 259 NAND3_X1
X259 245 247 260 XNOR2_X1
X260 251 256 257 261 AOI21_X1
X261 258 261 262 NOR2_X1
X262 259 260 261 263 OAI21_X1
X263 w_i_5_ x2_r_1_ 264 NAND2_X1
X264 w_i_4_ x2_r_5_ 265 NAND2_X1
X265 w_i_1_ w_i_4_ x2_r_2_ x2_r_5_ 266 AND4_X1
X266 w_i_4_ x2_r_2_ x2_r_5_ w_i_1_ 267 AOI22_X1
X267 266 267 268 NOR2_X1
X268 264 266 267 269 NOR3_X1
X269 264 268 270 XOR2_X1
X270 254 255 252 271 OAI21_X1
X271 w_i_0_ x2_r_6_ 272 NAND2_X1
X272 w_i_2_ w_i_3_ x2_r_3_ x2_r_4_ 273 AND4_X1
X273 w_i_2_ w_i_3_ x2_r_3_ x2_r_4_ 274 NAND4_X1
X274 w_i_3_ x2_r_3_ x2_r_4_ w_i_2_ 275 AOI22_X1
X275 272 273 275 276 OR3_X1
X276 272 273 275 277 OAI21_X1
X277 271 276 277 278 AND3_X1
X278 271 276 277 279 NAND3_X1
X279 271 276 277 280 AOI21_X1
X280 270 278 280 281 OR3_X1
X281 270 278 280 282 OAI21_X1
X282 263 281 282 283 AND3_X1
X283 263 281 282 284 NAND3_X1
X284 248 249 285 XNOR2_X1
X285 263 281 282 286 AOI21_X1
X286 283 286 287 NOR2_X1
X287 284 285 286 288 OAI21_X1
X288 266 269 289 NOR2_X1
X289 w_i_7_ x2_r_1_ 290 NAND2_X1
X290 249 290 291 OR2_X1
X291 291 292 INV_X1
X292 w_i_7_ x2_r_0_ x2_r_1_ w_i_6_ 293 AOI22_X1
X293 292 293 294 NOR2_X1
X294 294 269 266 295 OAI21_X1
X295 289 294 296 XOR2_X1
X296 279 280 270 297 OAI21_X1
X297 w_i_5_ x2_r_2_ 298 NAND2_X1
X298 w_i_4_ x2_r_6_ 299 NAND2_X1
X299 w_i_1_ w_i_4_ x2_r_3_ x2_r_6_ 300 AND4_X1
X300 w_i_4_ x2_r_3_ x2_r_6_ w_i_1_ 301 AOI22_X1
X301 300 301 302 NOR2_X1
X302 298 300 301 303 NOR3_X1
X303 298 302 304 XOR2_X1
X304 274 275 272 305 OAI21_X1
X305 w_i_0_ x2_r_7_ 306 NAND2_X1
X306 w_i_2_ w_i_3_ x2_r_4_ x2_r_5_ 307 AND4_X1
X307 w_i_2_ w_i_3_ x2_r_4_ x2_r_5_ 308 NAND4_X1
X308 w_i_3_ x2_r_4_ x2_r_5_ w_i_2_ 309 AOI22_X1
X309 306 307 309 310 OR3_X1
X310 306 307 309 311 OAI21_X1
X311 305 310 311 312 AND3_X1
X312 305 310 311 313 NAND3_X1
X313 305 310 311 314 AOI21_X1
X314 304 312 314 315 OR3_X1
X315 304 312 314 316 OAI21_X1
X316 297 315 316 317 AND3_X1
X317 297 315 316 318 NAND3_X1
X318 297 315 316 319 AOI21_X1
X319 296 317 319 320 OR3_X1
X320 296 317 319 321 OAI21_X1
X321 288 320 321 322 AND3_X1
X322 288 320 321 323 NAND3_X1
X323 288 320 321 324 AOI21_X1
X324 250 322 324 325 OR3_X1
X325 250 322 324 326 OAI21_X1
X326 285 287 327 XOR2_X1
X327 239 241 231 328 AOI21_X1
X328 260 262 329 XOR2_X1
X329 328 329 330 NOR2_X1
X330 328 329 331 NAND2_X1
X331 328 329 332 XNOR2_X1
X332 330 331 229 333 AOI21_X1
X333 327 333 334 NOR2_X1
X334 229 332 335 XNOR2_X1
X335 335 333 327 336 OAI21_X1
X336 336 333 327 337 AOI21_X1
X337 325 326 334 338 NAND3_X1
X338 325 326 337 339 AND3_X1
X339 323 324 250 340 OAI21_X1
X340 318 319 296 341 OAI21_X1
X341 300 303 342 NOR2_X1
X342 w_i_8_ x2_r_0_ 343 AND2_X1
X343 w_i_6_ x2_r_2_ 344 NAND2_X1
X344 w_i_7_ x2_r_2_ 345 NAND2_X1
X345 290 344 346 NOR2_X1
X346 290 344 347 XOR2_X1
X347 343 347 348 XOR2_X1
X348 348 349 INV_X1
X349 342 349 350 NOR2_X1
X350 342 348 351 XNOR2_X1
X351 292 351 352 XNOR2_X1
X352 313 314 304 353 OAI21_X1
X353 w_i_5_ x2_r_3_ 354 NAND2_X1
X354 w_i_4_ x2_r_7_ 355 NAND2_X1
X355 w_i_1_ w_i_4_ x2_r_4_ x2_r_7_ 356 AND4_X1
X356 w_i_4_ x2_r_4_ x2_r_7_ w_i_1_ 357 AOI22_X1
X357 356 357 358 NOR2_X1
X358 354 356 357 359 NOR3_X1
X359 354 358 360 XOR2_X1
X360 308 309 306 361 OAI21_X1
X361 w_i_0_ x2_r_8_ 362 NAND2_X1
X362 w_i_2_ w_i_3_ x2_r_5_ x2_r_6_ 363 AND4_X1
X363 w_i_2_ w_i_3_ x2_r_5_ x2_r_6_ 364 NAND4_X1
X364 w_i_3_ x2_r_5_ x2_r_6_ w_i_2_ 365 AOI22_X1
X365 362 363 365 366 OR3_X1
X366 362 363 365 367 OAI21_X1
X367 361 366 367 368 AND3_X1
X368 361 366 367 369 NAND3_X1
X369 361 366 367 370 AOI21_X1
X370 360 368 370 371 OR3_X1
X371 360 368 370 372 OAI21_X1
X372 353 371 372 373 AND3_X1
X373 353 371 372 374 NAND3_X1
X374 353 371 372 375 AOI21_X1
X375 352 373 375 376 OR3_X1
X376 352 373 375 377 OAI21_X1
X377 341 376 377 378 AND3_X1
X378 378 379 INV_X1
X379 341 376 377 380 AOI21_X1
X380 295 378 380 381 OR3_X1
X381 295 378 380 382 OAI21_X1
X382 340 381 382 383 AND3_X1
X383 340 381 382 384 AOI21_X1
X384 338 383 384 385 NOR3_X1
X385 338 383 384 386 OR3_X1
X386 338 383 384 387 OAI21_X1
X387 243 339 386 387 388 AND4_X1
X388 243 339 386 387 389 AOI22_X1
X389 388 389 390 NOR2_X1
X390 226 242 391 NAND2_X1
X391 227 x2_r_2_ w_i_1_ 392 AOI21_X1
X392 w_i_1_ w_i_2_ w_i_0_ 393 OAI21_X1
X393 x2_r_0_ x2_r_2_ w_i_0_ 394 AOI21_X1
X394 4 393 394 395 NOR3_X1
X395 228 395 396 NAND2_X1
X396 243 392 396 397 NOR3_X1
X397 339 391 397 398 NAND3_X1
X398 388 389 398 399 NOR3_X1
X399 390 398 400 XOR2_X1
X400 217 400 401 NOR2_X1
X401 x1_i_0_ 214 402 NOR2_X1
X402 193 195 403 NAND2_X1
X403 188 189 166 404 OAI21_X1
X404 183 184 174 405 OAI21_X1
X405 178 179 176 406 OAI21_X1
X406 w_r_9_ x2_i_0_ 407 NAND2_X1
X407 w_r_7_ x2_i_3_ 408 NAND2_X1
X408 w_r_6_ w_r_7_ x2_i_2_ x2_i_3_ 409 AND4_X1
X409 w_r_7_ x2_i_2_ x2_i_3_ w_r_6_ 410 AOI22_X1
X410 407 409 410 411 NOR3_X1
X411 407 409 410 412 OR3_X1
X412 407 409 410 413 OAI21_X1
X413 406 412 413 414 AND3_X1
X414 414 415 INV_X1
X415 406 412 413 416 AOI21_X1
X416 w_r_4_ x2_i_5_ 417 AND2_X1
X417 w_r_8_ x2_i_1_ 418 NAND2_X1
X418 80 418 419 NOR2_X1
X419 80 418 420 XOR2_X1
X420 417 420 421 XNOR2_X1
X421 414 416 421 422 OR3_X1
X422 421 416 414 423 OAI21_X1
X423 405 422 423 424 AND3_X1
X424 405 422 423 425 AOI21_X1
X425 160 161 157 426 AOI21_X1
X426 170 173 427 NOR2_X1
X427 w_r_1_ x2_i_8_ 428 AND2_X1
X428 w_r_3_ x2_i_6_ 429 NAND2_X1
X429 w_r_3_ x2_i_7_ 430 NAND2_X1
X430 159 429 431 NOR2_X1
X431 159 429 432 XOR2_X1
X432 428 432 433 XOR2_X1
X433 433 434 INV_X1
X434 427 434 435 NOR2_X1
X435 427 433 436 XNOR2_X1
X436 436 437 INV_X1
X437 426 437 438 NOR2_X1
X438 426 436 439 XOR2_X1
X439 424 425 439 440 NOR3_X1
X440 424 425 439 441 OR3_X1
X441 439 425 424 442 OAI21_X1
X442 404 441 442 443 AND3_X1
X443 404 441 442 444 AOI21_X1
X444 443 444 445 NOR2_X1
X445 164 165 114 446 AOI21_X1
X446 w_r_0_ x2_i_9_ 447 NAND2_X1
X447 446 447 448 NOR2_X1
X448 446 447 449 XOR2_X1
X449 445 449 450 XOR2_X1
X450 403 450 451 NAND2_X1
X451 403 450 452 XOR2_X1
X452 197 452 453 AND2_X1
X453 197 452 454 NOR2_X1
X454 197 452 455 XOR2_X1
X455 200 455 456 XNOR2_X1
X456 199 455 457 XNOR2_X1
X457 203 204 210 458 OAI21_X1
X458 457 458 459 XNOR2_X1
X459 27 459 460 OR2_X1
X460 x1_i_1_ 459 461 AND2_X1
X461 27 459 462 XNOR2_X1
X462 402 462 463 XNOR2_X1
X463 388 399 464 NOR2_X1
X464 379 381 465 NAND2_X1
X465 374 375 352 466 OAI21_X1
X466 369 370 360 467 OAI21_X1
X467 364 365 362 468 OAI21_X1
X468 w_i_0_ x2_r_9_ 469 NAND2_X1
X469 w_i_3_ x2_r_7_ 470 NAND2_X1
X470 w_i_2_ w_i_3_ x2_r_6_ x2_r_7_ 471 AND4_X1
X471 w_i_3_ x2_r_6_ x2_r_7_ w_i_2_ 472 AOI22_X1
X472 469 471 472 473 NOR3_X1
X473 469 471 472 474 OR3_X1
X474 469 471 472 475 OAI21_X1
X475 468 474 475 476 AND3_X1
X476 476 477 INV_X1
X477 468 474 475 478 AOI21_X1
X478 w_i_5_ x2_r_4_ 479 AND2_X1
X479 w_i_1_ x2_r_8_ 480 NAND2_X1
X480 265 480 481 NOR2_X1
X481 265 480 482 XOR2_X1
X482 479 482 483 XNOR2_X1
X483 476 478 483 484 OR3_X1
X484 483 478 476 485 OAI21_X1
X485 467 484 485 486 AND3_X1
X486 467 484 485 487 AOI21_X1
X487 346 347 343 488 AOI21_X1
X488 356 359 489 NOR2_X1
X489 w_i_8_ x2_r_1_ 490 AND2_X1
X490 w_i_6_ x2_r_3_ 491 NAND2_X1
X491 w_i_7_ x2_r_3_ 492 NAND2_X1
X492 345 491 493 NOR2_X1
X493 345 491 494 XOR2_X1
X494 490 494 495 XOR2_X1
X495 495 496 INV_X1
X496 489 496 497 NOR2_X1
X497 489 495 498 XNOR2_X1
X498 498 499 INV_X1
X499 488 499 500 NOR2_X1
X500 488 498 501 XOR2_X1
X501 486 487 501 502 NOR3_X1
X502 486 487 501 503 OR3_X1
X503 501 487 486 504 OAI21_X1
X504 466 503 504 505 AND3_X1
X505 466 503 504 506 AOI21_X1
X506 505 506 507 NOR2_X1
X507 350 351 292 508 AOI21_X1
X508 x2_r_0_ w_i_9_ 509 NAND2_X1
X509 508 509 510 OR2_X1
X510 510 511 INV_X1
X511 508 509 512 XOR2_X1
X512 507 512 513 XOR2_X1
X513 465 513 514 NAND2_X1
X514 465 513 515 XOR2_X1
X515 383 515 516 AND2_X1
X516 383 515 517 XNOR2_X1
X517 517 518 INV_X1
X518 464 517 519 NOR2_X1
X519 385 517 520 XNOR2_X1
X520 464 520 521 XNOR2_X1
X521 521 522 INV_X1
X522 463 521 523 OR2_X1
X523 463 521 524 XNOR2_X1
X524 401 524 525 NOR2_X1
X525 401 524 526 AND2_X1
X526 1 525 526 527 NOR3_X1
X527 523 524 401 528 OAI21_X1
X528 460 462 402 529 OAI21_X1
X529 455 202 199 530 OAI21_X1
X530 453 454 200 203 531 AOI211_X1
X531 531 456 212 532 AOI21_X1
X532 530 457 213 533 OAI21_X1
X533 443 445 449 534 AOI21_X1
X534 424 440 535 NOR2_X1
X535 415 422 536 AND2_X1
X536 409 411 537 NOR2_X1
X537 w_r_10_ x2_i_0_ 538 NAND2_X1
X538 w_r_8_ x2_i_2_ 539 AND2_X1
X539 w_r_8_ x2_i_2_ 540 NAND2_X1
X540 408 540 541 NOR2_X1
X541 408 539 542 XNOR2_X1
X542 w_r_10_ x2_i_0_ 542 543 AND3_X1
X543 538 542 544 XNOR2_X1
X544 544 411 409 545 OAI21_X1
X545 537 544 546 XNOR2_X1
X546 w_r_9_ x2_i_1_ 547 NAND2_X1
X547 121 547 548 NOR2_X1
X548 121 547 549 XOR2_X1
X549 w_r_5_ x2_i_5_ 549 550 AND3_X1
X550 549 x2_i_5_ w_r_5_ 551 AOI21_X1
X551 550 551 552 NOR2_X1
X552 546 552 553 NAND2_X1
X553 546 552 554 XNOR2_X1
X554 536 554 555 NOR2_X1
X555 536 554 556 XOR2_X1
X556 431 432 428 557 AOI21_X1
X557 419 420 417 558 AOI21_X1
X558 w_r_4_ x2_i_6_ 559 NAND2_X1
X559 w_r_4_ x2_i_7_ 560 NAND2_X1
X560 430 559 561 NOR2_X1
X561 430 559 562 XOR2_X1
X562 w_r_2_ x2_i_8_ 562 563 AND3_X1
X563 562 x2_i_8_ w_r_2_ 564 AOI21_X1
X564 563 564 565 NOR2_X1
X565 565 566 INV_X1
X566 558 566 567 NOR2_X1
X567 558 565 568 XNOR2_X1
X568 568 569 INV_X1
X569 557 569 570 NOR2_X1
X570 557 568 571 XNOR2_X1
X571 556 571 572 XNOR2_X1
X572 535 572 573 NOR2_X1
X573 535 572 574 XOR2_X1
X574 435 438 575 NOR2_X1
X575 w_r_1_ x2_i_10_ 576 NAND2_X1
X576 447 576 577 NOR2_X1
X577 w_r_1_ x2_i_9_ x2_i_10_ w_r_0_ 578 AOI22_X1
X578 577 578 579 NOR2_X1
X579 575 577 578 580 NOR3_X1
X580 575 579 581 XNOR2_X1
X581 574 581 582 XNOR2_X1
X582 534 582 583 NOR2_X1
X583 534 582 584 XOR2_X1
X584 448 584 585 XOR2_X1
X585 403 450 585 586 AND3_X1
X586 451 585 587 XNOR2_X1
X587 453 587 588 AND2_X1
X588 453 587 589 NAND2_X1
X589 453 587 590 OR2_X1
X590 453 587 591 XNOR2_X1
X591 533 591 592 XNOR2_X1
X592 x1_i_2_ 592 593 NAND2_X1
X593 6 592 594 NOR2_X1
X594 x1_i_2_ 592 595 XNOR2_X1
X595 529 595 596 XNOR2_X1
X596 505 507 512 597 AOI21_X1
X597 486 502 598 NOR2_X1
X598 477 484 599 AND2_X1
X599 471 473 600 NOR2_X1
X600 w_i_0_ x2_r_10_ 601 NAND2_X1
X601 w_i_2_ x2_r_8_ 602 NAND2_X1
X602 w_i_3_ x2_r_8_ 603 NAND2_X1
X603 470 602 604 NOR2_X1
X604 470 602 605 XOR2_X1
X605 w_i_0_ x2_r_10_ 605 606 AND3_X1
X606 601 605 607 XNOR2_X1
X607 607 473 471 608 OAI21_X1
X608 600 607 609 XNOR2_X1
X609 w_i_1_ x2_r_9_ 610 NAND2_X1
X610 w_i_4_ x2_r_9_ 611 NAND2_X1
X611 299 610 612 NOR2_X1
X612 299 610 613 XOR2_X1
X613 w_i_5_ x2_r_5_ 613 614 AND3_X1
X614 613 x2_r_5_ w_i_5_ 615 AOI21_X1
X615 614 615 616 NOR2_X1
X616 609 616 617 NAND2_X1
X617 609 616 618 XNOR2_X1
X618 599 618 619 NOR2_X1
X619 599 618 620 XOR2_X1
X620 493 494 490 621 AOI21_X1
X621 481 482 479 622 AOI21_X1
X622 w_i_6_ x2_r_4_ 623 NAND2_X1
X623 w_i_7_ x2_r_4_ 624 NAND2_X1
X624 492 623 625 NOR2_X1
X625 492 623 626 XOR2_X1
X626 w_i_8_ x2_r_2_ 626 627 AND3_X1
X627 626 x2_r_2_ w_i_8_ 628 AOI21_X1
X628 627 628 629 NOR2_X1
X629 629 630 INV_X1
X630 622 630 631 NOR2_X1
X631 622 629 632 XNOR2_X1
X632 632 633 INV_X1
X633 621 633 634 NOR2_X1
X634 621 632 635 XNOR2_X1
X635 620 635 636 XNOR2_X1
X636 598 636 637 NOR2_X1
X637 598 636 638 XOR2_X1
X638 497 500 639 NOR2_X1
X639 x2_r_1_ w_i_10_ 640 NAND2_X1
X640 509 640 641 NOR2_X1
X641 x2_r_1_ w_i_9_ w_i_10_ x2_r_0_ 642 AOI22_X1
X642 641 642 643 NOR2_X1
X643 639 641 642 644 NOR3_X1
X644 639 643 645 XNOR2_X1
X645 638 645 646 XNOR2_X1
X646 597 646 647 OR2_X1
X647 597 646 648 XOR2_X1
X648 511 648 649 NAND2_X1
X649 511 648 650 XNOR2_X1
X650 514 650 651 OR2_X1
X651 514 650 652 XOR2_X1
X652 516 652 653 AND2_X1
X653 516 652 654 XNOR2_X1
X654 519 518 385 655 AOI21_X1
X655 517 654 386 464 656 AOI211_X1
X656 654 655 657 XOR2_X1
X657 596 657 658 NOR2_X1
X658 596 657 659 XOR2_X1
X659 start 528 659 660 OAI21_X1
X660 660 659 528 661 AOI21_X1
X661 658 659 528 662 AOI21_X1
X662 594 595 529 663 AOI21_X1
X663 588 590 533 664 AOI21_X1
X664 589 591 532 665 OAI21_X1
X665 583 584 448 666 AOI21_X1
X666 573 574 581 667 AOI21_X1
X667 555 556 571 668 AOI21_X1
X668 545 553 669 AND2_X1
X669 w_r_11_ x2_i_0_ 670 NAND2_X1
X670 w_r_9_ x2_i_3_ 671 AND2_X1
X671 w_r_9_ x2_i_3_ 672 NAND2_X1
X672 w_r_9_ x2_i_2_ x2_i_3_ w_r_8_ 673 AOI22_X1
X673 673 671 539 674 AOI21_X1
X674 670 674 675 XNOR2_X1
X675 675 543 541 676 OAI21_X1
X676 541 543 675 677 OR3_X1
X677 w_r_6_ x2_i_5_ 678 AND2_X1
X678 w_r_10_ x2_i_1_ 679 NAND2_X1
X679 169 679 680 NOR2_X1
X680 169 679 681 XOR2_X1
X681 678 681 682 XOR2_X1
X682 676 677 682 683 AND3_X1
X683 676 677 682 684 NAND3_X1
X684 682 677 676 685 AOI21_X1
X685 683 685 686 OR2_X1
X686 669 686 687 OR2_X1
X687 687 688 INV_X1
X688 669 686 689 XOR2_X1
X689 w_r_3_ x2_i_8_ 690 NAND2_X1
X690 w_r_5_ x2_i_6_ 691 NAND2_X1
X691 w_r_5_ x2_i_7_ 692 NAND2_X1
X692 560 691 693 XOR2_X1
X693 w_r_3_ x2_i_8_ 693 694 NAND3_X1
X694 690 693 695 XNOR2_X1
X695 695 550 548 696 OAI21_X1
X696 548 550 695 697 OR3_X1
X697 696 697 698 AND2_X1
X698 698 563 561 699 OAI21_X1
X699 561 563 698 700 OR3_X1
X700 699 700 701 AND2_X1
X701 689 701 702 AND2_X1
X702 689 701 703 NAND2_X1
X703 689 701 704 XNOR2_X1
X704 668 704 705 NOR2_X1
X705 668 704 706 XOR2_X1
X706 567 570 707 NOR2_X1
X707 w_r_2_ x2_i_9_ 708 NAND2_X1
X708 w_r_2_ x2_i_10_ 709 NAND2_X1
X709 576 708 710 NOR2_X1
X710 576 708 711 XOR2_X1
X711 w_r_0_ x2_i_11_ 711 712 AND3_X1
X712 711 x2_i_11_ w_r_0_ 713 AOI21_X1
X713 712 713 714 NOR2_X1
X714 577 714 715 AND2_X1
X715 577 714 716 XOR2_X1
X716 716 717 INV_X1
X717 707 717 718 NOR2_X1
X718 707 716 719 XNOR2_X1
X719 706 719 720 XNOR2_X1
X720 667 720 721 NOR2_X1
X721 667 720 722 XOR2_X1
X722 580 722 723 XNOR2_X1
X723 666 723 724 OR2_X1
X724 724 725 INV_X1
X725 666 723 726 XOR2_X1
X726 586 726 727 AND2_X1
X727 586 726 728 NAND2_X1
X728 586 726 729 OR2_X1
X729 586 726 730 XNOR2_X1
X730 664 730 731 XNOR2_X1
X731 7 731 732 NOR2_X1
X732 x1_i_3_ 731 733 NAND2_X1
X733 x1_i_3_ 731 734 XNOR2_X1
X734 663 734 735 XOR2_X1
X735 647 649 736 NAND2_X1
X736 637 638 645 737 AOI21_X1
X737 619 620 635 738 AOI21_X1
X738 608 617 739 AND2_X1
X739 w_i_0_ x2_r_11_ 740 AND2_X1
X740 w_i_2_ x2_r_9_ 741 AND2_X1
X741 w_i_2_ x2_r_9_ 742 NAND2_X1
X742 603 741 743 XNOR2_X1
X743 740 743 744 NAND2_X1
X744 740 743 745 XOR2_X1
X745 745 606 604 746 OAI21_X1
X746 604 606 745 747 OR3_X1
X747 w_i_5_ x2_r_6_ 748 AND2_X1
X748 w_i_1_ x2_r_10_ 749 NAND2_X1
X749 w_i_4_ x2_r_10_ 750 NAND2_X1
X750 355 749 751 NOR2_X1
X751 355 749 752 XOR2_X1
X752 748 752 753 XOR2_X1
X753 746 747 753 754 AND3_X1
X754 746 747 753 755 NAND3_X1
X755 753 747 746 756 AOI21_X1
X756 754 756 757 OR2_X1
X757 739 757 758 OR2_X1
X758 758 759 INV_X1
X759 739 757 760 XOR2_X1
X760 w_i_8_ x2_r_3_ 761 NAND2_X1
X761 w_i_6_ x2_r_5_ 762 NAND2_X1
X762 w_i_7_ x2_r_5_ 763 NAND2_X1
X763 624 762 764 XOR2_X1
X764 w_i_8_ x2_r_3_ 764 765 NAND3_X1
X765 761 764 766 XNOR2_X1
X766 766 614 612 767 OAI21_X1
X767 612 614 766 768 OR3_X1
X768 767 768 769 AND2_X1
X769 769 627 625 770 OAI21_X1
X770 625 627 769 771 OR3_X1
X771 770 771 772 AND2_X1
X772 760 772 773 AND2_X1
X773 760 772 774 NAND2_X1
X774 760 772 775 XNOR2_X1
X775 738 775 776 NOR2_X1
X776 738 775 777 XOR2_X1
X777 631 634 778 NOR2_X1
X778 x2_r_2_ w_i_9_ 779 NAND2_X1
X779 x2_r_2_ w_i_10_ 780 NAND2_X1
X780 640 779 781 NOR2_X1
X781 640 779 782 XOR2_X1
X782 x2_r_0_ w_i_11_ 782 783 AND3_X1
X783 782 w_i_11_ x2_r_0_ 784 AOI21_X1
X784 783 784 785 NOR2_X1
X785 641 785 786 AND2_X1
X786 641 785 787 XOR2_X1
X787 787 788 INV_X1
X788 778 788 789 NOR2_X1
X789 778 787 790 XNOR2_X1
X790 777 790 791 XNOR2_X1
X791 737 791 792 OR2_X1
X792 737 791 793 XOR2_X1
X793 644 793 794 NAND2_X1
X794 644 793 795 XNOR2_X1
X795 795 649 647 796 AOI21_X1
X796 736 795 797 XOR2_X1
X797 651 797 798 OR2_X1
X798 651 797 799 XOR2_X1
X799 799 656 653 800 OAI21_X1
X800 653 656 799 801 OR3_X1
X801 800 801 802 NAND2_X1
X802 735 802 803 NAND2_X1
X803 735 802 804 XNOR2_X1
X804 662 804 805 NOR2_X1
X805 662 804 806 AND2_X1
X806 1 805 806 807 NOR3_X1
X807 803 804 662 808 OAI21_X1
X808 733 734 663 809 OAI21_X1
X809 727 729 665 810 AOI21_X1
X810 728 730 664 811 OAI21_X1
X811 721 722 580 812 AOI21_X1
X812 705 706 719 813 AOI21_X1
X813 676 684 814 NAND2_X1
X814 540 672 673 670 815 OAI22_X1
X815 w_r_10_ x2_i_2_ 816 NAND2_X1
X816 w_r_10_ x2_i_3_ 817 NAND2_X1
X817 672 816 818 NOR2_X1
X818 671 816 819 XNOR2_X1
X819 w_r_12_ x2_i_0_ 819 820 AND3_X1
X820 819 x2_i_0_ w_r_12_ 821 AOI21_X1
X821 820 821 822 NOR2_X1
X822 815 822 823 AND2_X1
X823 815 822 824 XOR2_X1
X824 w_r_7_ x2_i_5_ 825 AND2_X1
X825 x2_i_4_ w_r_11_ 826 AND2_X1
X826 x2_i_4_ w_r_11_ 827 NAND2_X1
X827 418 827 828 NOR2_X1
X828 w_r_8_ x2_i_4_ w_r_11_ x2_i_1_ 829 AOI22_X1
X829 828 829 830 NOR2_X1
X830 825 830 831 XOR2_X1
X831 824 831 832 AND2_X1
X832 824 831 833 XOR2_X1
X833 814 833 834 XOR2_X1
X834 694 692 559 835 OAI21_X1
X835 680 681 678 836 AOI21_X1
X836 w_r_4_ x2_i_8_ 837 NAND2_X1
X837 w_r_6_ x2_i_6_ 838 NAND2_X1
X838 w_r_6_ x2_i_7_ 839 NAND2_X1
X839 692 838 840 XOR2_X1
X840 w_r_4_ x2_i_8_ 840 841 NAND3_X1
X841 837 840 842 XNOR2_X1
X842 842 843 INV_X1
X843 836 843 844 NOR2_X1
X844 836 842 845 XNOR2_X1
X845 835 845 846 XOR2_X1
X846 834 846 847 AND2_X1
X847 834 846 848 NAND2_X1
X848 834 846 849 NOR2_X1
X849 834 846 850 OR2_X1
X850 848 850 688 702 851 OAI211_X1
X851 851 852 INV_X1
X852 687 703 847 849 853 OAI211_X1
X853 696 699 854 AND2_X1
X854 w_r_0_ x2_i_12_ 855 NAND2_X1
X855 w_r_1_ x2_i_11_ 856 AND2_X1
X856 w_r_3_ x2_i_9_ 857 NAND2_X1
X857 w_r_3_ x2_i_10_ 858 NAND2_X1
X858 709 857 859 NOR2_X1
X859 709 857 860 XOR2_X1
X860 856 860 861 XOR2_X1
X861 861 712 710 862 OAI21_X1
X862 710 712 861 863 OR3_X1
X863 862 863 864 AND2_X1
X864 w_r_0_ x2_i_12_ 864 865 NAND3_X1
X865 855 864 866 XNOR2_X1
X866 866 867 INV_X1
X867 854 866 868 XNOR2_X1
X868 715 868 869 NAND2_X1
X869 715 868 870 XOR2_X1
X870 851 853 870 871 AND3_X1
X871 870 853 851 872 AOI21_X1
X872 871 872 873 NOR2_X1
X873 813 871 872 874 NOR3_X1
X874 813 873 875 XNOR2_X1
X875 718 875 876 XNOR2_X1
X876 812 876 877 NOR2_X1
X877 812 876 878 XOR2_X1
X878 725 878 879 AND2_X1
X879 725 878 880 NAND2_X1
X880 725 878 881 OR2_X1
X881 725 878 882 XNOR2_X1
X882 811 882 883 XNOR2_X1
X883 x1_i_4_ 883 884 NAND2_X1
X884 8 883 885 NOR2_X1
X885 x1_i_4_ 883 886 XNOR2_X1
X886 809 886 887 XNOR2_X1
X887 792 794 888 NAND2_X1
X888 776 777 790 889 AOI21_X1
X889 746 755 890 NAND2_X1
X890 744 742 603 891 OAI21_X1
X891 w_i_0_ x2_r_12_ 892 NAND2_X1
X892 w_i_3_ x2_r_10_ 893 AND2_X1
X893 w_i_3_ x2_r_10_ 894 NAND2_X1
X894 w_i_3_ x2_r_9_ x2_r_10_ w_i_2_ 895 AOI22_X1
X895 895 893 741 896 AOI21_X1
X896 892 896 897 XNOR2_X1
X897 891 897 898 AND2_X1
X898 891 897 899 XOR2_X1
X899 w_i_5_ x2_r_7_ 900 AND2_X1
X900 w_i_4_ x2_r_11_ 901 AND2_X1
X901 w_i_4_ x2_r_11_ 902 NAND2_X1
X902 480 902 903 NOR2_X1
X903 w_i_4_ x2_r_8_ x2_r_11_ w_i_1_ 904 AOI22_X1
X904 903 904 905 NOR2_X1
X905 900 905 906 XOR2_X1
X906 899 906 907 AND2_X1
X907 899 906 908 XOR2_X1
X908 890 908 909 XOR2_X1
X909 765 763 623 910 OAI21_X1
X910 751 752 748 911 AOI21_X1
X911 w_i_8_ x2_r_4_ 912 NAND2_X1
X912 w_i_6_ x2_r_6_ 913 NAND2_X1
X913 w_i_7_ x2_r_6_ 914 NAND2_X1
X914 763 913 915 XOR2_X1
X915 w_i_8_ x2_r_4_ 915 916 NAND3_X1
X916 912 915 917 XNOR2_X1
X917 917 918 INV_X1
X918 911 918 919 NOR2_X1
X919 911 917 920 XNOR2_X1
X920 910 920 921 XOR2_X1
X921 909 921 922 AND2_X1
X922 909 921 923 NAND2_X1
X923 909 921 924 NOR2_X1
X924 909 921 925 OR2_X1
X925 923 925 759 773 926 OAI211_X1
X926 926 927 INV_X1
X927 758 774 922 924 928 OAI211_X1
X928 767 770 929 AND2_X1
X929 x2_r_0_ w_i_12_ 930 NAND2_X1
X930 x2_r_1_ w_i_11_ 931 AND2_X1
X931 x2_r_3_ w_i_9_ 932 NAND2_X1
X932 x2_r_3_ w_i_10_ 933 NAND2_X1
X933 780 932 934 NOR2_X1
X934 780 932 935 XOR2_X1
X935 931 935 936 XOR2_X1
X936 936 783 781 937 OAI21_X1
X937 781 783 936 938 OR3_X1
X938 937 938 939 AND2_X1
X939 x2_r_0_ w_i_12_ 939 940 NAND3_X1
X940 930 939 941 XNOR2_X1
X941 941 942 INV_X1
X942 929 941 943 XNOR2_X1
X943 786 943 944 NAND2_X1
X944 786 943 945 XOR2_X1
X945 926 928 945 946 AND3_X1
X946 945 928 926 947 AOI21_X1
X947 946 947 948 NOR2_X1
X948 889 946 947 949 NOR3_X1
X949 889 948 950 XNOR2_X1
X950 789 950 951 XNOR2_X1
X951 951 794 792 952 AOI21_X1
X952 888 951 953 XNOR2_X1
X953 796 953 954 AND2_X1
X954 796 953 955 XNOR2_X1
X955 955 800 798 956 AOI21_X1
X956 798 800 955 957 AND3_X1
X957 956 957 958 NOR2_X1
X958 887 958 959 NOR2_X1
X959 887 958 960 XOR2_X1
X960 start 808 960 961 OAI21_X1
X961 961 960 808 962 AOI21_X1
X962 959 960 808 963 AOI21_X1
X963 885 886 809 964 AOI21_X1
X964 880 882 810 965 OAI21_X1
X965 874 875 718 966 AOI21_X1
X966 869 867 854 967 OAI21_X1
X967 852 871 968 NOR2_X1
X968 847 833 814 969 AOI21_X1
X969 w_r_13_ x2_i_0_ 970 NAND2_X1
X970 w_r_11_ x2_i_2_ 971 NAND2_X1
X971 817 971 972 XOR2_X1
X972 w_r_13_ x2_i_0_ 972 973 NAND3_X1
X973 970 972 974 XNOR2_X1
X974 974 820 818 975 OAI21_X1
X975 975 976 INV_X1
X976 818 820 974 977 OR3_X1
X977 975 977 978 AND2_X1
X978 w_r_8_ x2_i_5_ 979 AND2_X1
X979 x2_i_4_ w_r_12_ 980 NAND2_X1
X980 547 980 981 NOR2_X1
X981 x2_i_4_ w_r_9_ w_r_12_ x2_i_1_ 982 AOI22_X1
X982 981 982 983 NOR2_X1
X983 979 983 984 XOR2_X1
X984 978 984 985 AND2_X1
X985 978 984 986 XOR2_X1